Info: SIMULATION PARAMETERS:
Info: TIMESTEP               2
Info: NUMBER OF STEPS        2000000
Info: STEPS PER CYCLE        10
Info: PERIODIC CELL BASIS 1  58.4345 0 0
Info: PERIODIC CELL BASIS 2  0 59.7796 0
Info: PERIODIC CELL BASIS 3  0 0 60.2479
Info: PERIODIC CELL CENTER   20.122 2.05778 -11.1904
Info: WRAPPING ALL CLUSTERS AROUND PERIODIC BOUNDARIES ON OUTPUT.
Info: FIRST LDB TIMESTEP     50
Info: LAST LDB TIMESTEP     -1
Info: HOM BACKGROUND SCALING 1
Info: PME BACKGROUND SCALING 1
Info: MIN ATOMS PER PATCH    40
Info: INITIAL TEMPERATURE    400
Info: CENTER OF MASS MOVING INITIALLY? NO
Info: DIELECTRIC             1
Info: EXCLUDE                SCALED ONE-FOUR
Info: 1-4 ELECTROSTATICS SCALED BY 1
Info: MODIFIED 1-4 VDW PARAMETERS WILL BE USED
Info: DCD FILENAME           400k_3_mutata4_4ns.dcd
Info: DCD FREQUENCY          2000
Info: DCD FIRST STEP         2000
Info: DCD FILE WILL CONTAIN UNIT CELL DATA
Info: XST FILENAME           400k_3_mutata4_4ns.xst
Info: XST FREQUENCY          2000
Info: NO VELOCITY DCD OUTPUT
Info: NO FORCE DCD OUTPUT
Info: OUTPUT FILENAME        400k_3_mutata4_4ns
Info: BINARY OUTPUT FILES WILL BE USED
Info: RESTART FILENAME       400k_3_mutata4_4ns.restart
Info: RESTART FREQUENCY      200000
Info: BINARY RESTART FILES WILL BE USED
Info: SWITCHING ACTIVE
Info: SWITCHING ON           10
Info: SWITCHING OFF          12
Info: PAIRLIST DISTANCE      14
Info: PAIRLIST SHRINK RATE   0.01
Info: PAIRLIST GROW RATE     0.01
Info: PAIRLIST TRIGGER       0.3
Info: PAIRLISTS PER CYCLE    2
Info: PAIRLISTS ENABLED
Info: MARGIN                 0.495
Info: HYDROGEN GROUP CUTOFF  2.5
Info: PATCH DIMENSION        16.995
Info: ENERGY OUTPUT STEPS    2000
Info: CROSSTERM ENERGY INCLUDED IN DIHEDRAL
Info: TIMING OUTPUT STEPS    2000
Info: PRESSURE OUTPUT STEPS  2000
Info: LANGEVIN DYNAMICS ACTIVE
Info: LANGEVIN TEMPERATURE   400
Info: LANGEVIN USING BBK INTEGRATOR
Info: LANGEVIN DAMPING COEFFICIENT IS 5 INVERSE PS
Info: LANGEVIN DYNAMICS NOT APPLIED TO HYDROGENS
Info: LANGEVIN PISTON PRESSURE CONTROL ACTIVE
Info:        TARGET PRESSURE IS 1.01325 BAR
Info:     OSCILLATION PERIOD IS 200 FS
Info:             DECAY TIME IS 100 FS
Info:     PISTON TEMPERATURE IS 400 K
Info:       PRESSURE CONTROL IS GROUP-BASED
Info:    INITIAL STRAIN RATE IS -7.53808e-06 -7.53808e-06 -7.53808e-06
Info:       CELL FLUCTUATION IS ISOTROPIC
Info: PARTICLE MESH EWALD (PME) ACTIVE
Info: PME TOLERANCE               1e-06
Info: PME EWALD COEFFICIENT       0.257952
Info: PME INTERPOLATION ORDER     4
Info: PME GRID DIMENSIONS         60 60 64
Info: PME MAXIMUM GRID SPACING    1
Info: FULL ELECTROSTATIC EVALUATION FREQUENCY      2
Info: USING VERLET I (r-RESPA) MTS SCHEME.
Info: C1 SPLITTING OF LONG RANGE ELECTROSTATICS
Info: PLACING ATOMS IN PATCHES BY HYDROGEN GROUPS
Info: RIGID BONDS TO HYDROGEN : ALL
Info:         ERROR TOLERANCE : 1e-08
Info:          MAX ITERATIONS : 100
Info: RIGID WATER USING SETTLE ALGORITHM
Info: RANDOM NUMBER SEED     6895472
Info: USE HYDROGEN BONDS?    NO
Info: COORDINATE PDB         ../../input_mutant_4/2PYP_mutata_ionized.pdb
Info: STRUCTURE FILE         ../../input_mutant_4/2PYP_mutata_ionized.psf
Info: PARAMETER file: CHARMM format!
Info: PARAMETERS             ../../input_mutant_4/par_all27_prot_lipid.inp
Info: USING ARITHMETIC MEAN TO COMBINE L-J SIGMA PARAMETERS
Info: BINARY COORDINATES     ../../input_mutant_4/2PYP_mutata_final.coor
Info: SUMMARY OF PARAMETERS:
Info: 180 BONDS
Info: 447 ANGLES
Info: 566 DIHEDRAL
Info: 46 IMPROPER
Info: 6 CROSSTERM
Info: 119 VDW
Info: 0 VDW_PAIRS
Info: 0 NBTHOLE_PAIRS
Info: STRUCTURE SUMMARY:
Info: 21514 ATOMS
Info: 15012 BONDS
Info: 10062 ANGLES
Info: 5172 DIHEDRALS
Info: 325 IMPROPERS
Info: 121 CROSSTERMS
Info: 0 EXCLUSIONS
Info: 20520 RIGID BONDS
Info: 44022 DEGREES OF FREEDOM
Info: 7516 HYDROGEN GROUPS
Info: 4 ATOMS IN LARGEST HYDROGEN GROUP
Info: 7516 MIGRATION GROUPS
Info: 4 ATOMS IN LARGEST MIGRATION GROUP
Info: TOTAL MASS = 131628 amu
Info: TOTAL CHARGE = 1.73785e-06 e
Info: MASS DENSITY = 1.03859 g/cm^3
Info: ATOM DENSITY = 0.102225 atoms/A^3
Info: ADDED 30163 IMPLICIT EXCLUSIONS
Info: NONBONDED TABLE R-SQUARED SPACING: 0.0625
Info: NONBONDED TABLE SIZE: 769 POINTS
Info: REMOVING COM VELOCITY -0.012038 -0.0623091 -0.0140647
Info: Updated CUDA force table with 4096 elements.
Info: Updated CUDA LJ table with 119 x 119 elements.
Info: Found 270 unique exclusion lists needing 824 bytes
ETITLE: TS BOND ANGLE DIHED IMPRP ELECT VDW BOUNDARY MISC KINETIC TOTAL TEMP POTENTIAL TOTAL3 TEMPAVG PRESSURE GPRESSURE VOLUME PRESSAVG GPRESSAVG
ENERGY: 0 380.7298 1019.9602 491.6640 68.8260 -75948.0430 6241.3129 0.0000 0.0000 17445.9943 -50299.5558 398.8562 -67745.5500 -50256.6198 398.8562 727.7026 758.8526 210457.3555 727.7026 758.8526
ENERGY: 400000 506.0263 1333.6491 544.1334 80.4808 -65630.8116 4387.5480 0.0000 0.0000 17520.7378 -41258.2363 400.5650 -58778.9741 -41210.0120 400.0024 -154.6872 -132.3068 233473.4529 -5.2985 -5.3915
ENERGY: 800000 505.6781 1333.0695 531.3568 89.1111 -66023.0905 4543.4670 0.0000 0.0000 17600.9626 -41419.4453 402.3991 -59020.4080 -41372.0076 400.3248 -116.0639 -83.8172 232945.3995 4.8080 4.5645
ENERGY: 1200000 464.4742 1362.7148 548.8537 80.9101 -65948.9254 4497.2577 0.0000 0.0000 17557.3887 -41437.3260 401.4029 -58994.7148 -41384.7775 399.0288 -75.6453 -39.9387 234456.1321 1.5727 1.5966
ENERGY: 1600000 497.5355 1270.8062 537.2578 83.5987 -66331.0266 4667.0143 0.0000 0.0000 17494.6758 -41780.1382 399.9692 -59274.8140 -41731.5015 398.9661 78.7516 112.0343 232467.7391 5.4958 5.6155
ENERGY: 2000000 518.8324 1299.6853 548.2843 85.1124 -66197.5267 4755.7565 0.0000 0.0000 17577.8933 -41411.9626 401.8717 -58989.8559 -41360.5122 399.5663 136.6264 167.8207 234021.6942 -4.2368 -3.9309
