Info: SIMULATION PARAMETERS:
Info: TIMESTEP               2
Info: NUMBER OF STEPS        2000000
Info: STEPS PER CYCLE        10
Info: PERIODIC CELL BASIS 1  55.2689 0 0
Info: PERIODIC CELL BASIS 2  0 57.8115 0
Info: PERIODIC CELL BASIS 3  0 0 64.5138
Info: PERIODIC CELL CENTER   19.4469 2.11497 -11.3022
Info: WRAPPING ALL CLUSTERS AROUND PERIODIC BOUNDARIES ON OUTPUT.
Info: FIRST LDB TIMESTEP     50
Info: LAST LDB TIMESTEP     -1
Info: HOM BACKGROUND SCALING 1
Info: PME BACKGROUND SCALING 1
Info: MIN ATOMS PER PATCH    40
Info: INITIAL TEMPERATURE    500
Info: CENTER OF MASS MOVING INITIALLY? NO
Info: DIELECTRIC             1
Info: EXCLUDE                SCALED ONE-FOUR
Info: 1-4 ELECTROSTATICS SCALED BY 1
Info: MODIFIED 1-4 VDW PARAMETERS WILL BE USED
Info: DCD FILENAME           500k_3_mutata3_4ns.dcd
Info: DCD FREQUENCY          2000
Info: DCD FIRST STEP         2000
Info: DCD FILE WILL CONTAIN UNIT CELL DATA
Info: XST FILENAME           500k_3_mutata3_4ns.xst
Info: XST FREQUENCY          2000
Info: NO VELOCITY DCD OUTPUT
Info: NO FORCE DCD OUTPUT
Info: OUTPUT FILENAME        500k_3_mutata3_4ns
Info: BINARY OUTPUT FILES WILL BE USED
Info: RESTART FILENAME       500k_3_mutata3_4ns.restart
Info: RESTART FREQUENCY      200000
Info: BINARY RESTART FILES WILL BE USED
Info: SWITCHING ACTIVE
Info: SWITCHING ON           10
Info: SWITCHING OFF          12
Info: PAIRLIST DISTANCE      14
Info: PAIRLIST SHRINK RATE   0.01
Info: PAIRLIST GROW RATE     0.01
Info: PAIRLIST TRIGGER       0.3
Info: PAIRLISTS PER CYCLE    2
Info: PAIRLISTS ENABLED
Info: MARGIN                 0.495
Info: HYDROGEN GROUP CUTOFF  2.5
Info: PATCH DIMENSION        16.995
Info: ENERGY OUTPUT STEPS    2000
Info: CROSSTERM ENERGY INCLUDED IN DIHEDRAL
Info: TIMING OUTPUT STEPS    2000
Info: PRESSURE OUTPUT STEPS  2000
Info: LANGEVIN DYNAMICS ACTIVE
Info: LANGEVIN TEMPERATURE   500
Info: LANGEVIN USING BBK INTEGRATOR
Info: LANGEVIN DAMPING COEFFICIENT IS 5 INVERSE PS
Info: LANGEVIN DYNAMICS NOT APPLIED TO HYDROGENS
Info: LANGEVIN PISTON PRESSURE CONTROL ACTIVE
Info:        TARGET PRESSURE IS 1.01325 BAR
Info:     OSCILLATION PERIOD IS 200 FS
Info:             DECAY TIME IS 100 FS
Info:     PISTON TEMPERATURE IS 500 K
Info:       PRESSURE CONTROL IS GROUP-BASED
Info:    INITIAL STRAIN RATE IS 2.85127e-05 2.85127e-05 2.85127e-05
Info:       CELL FLUCTUATION IS ISOTROPIC
Info: PARTICLE MESH EWALD (PME) ACTIVE
Info: PME TOLERANCE               1e-06
Info: PME EWALD COEFFICIENT       0.257952
Info: PME INTERPOLATION ORDER     4
Info: PME GRID DIMENSIONS         56 60 72
Info: PME MAXIMUM GRID SPACING    1
Info: FULL ELECTROSTATIC EVALUATION FREQUENCY      2
Info: USING VERLET I (r-RESPA) MTS SCHEME.
Info: C1 SPLITTING OF LONG RANGE ELECTROSTATICS
Info: PLACING ATOMS IN PATCHES BY HYDROGEN GROUPS
Info: RIGID BONDS TO HYDROGEN : ALL
Info:         ERROR TOLERANCE : 1e-08
Info:          MAX ITERATIONS : 100
Info: RIGID WATER USING SETTLE ALGORITHM
Info: RANDOM NUMBER SEED     1824657
Info: USE HYDROGEN BONDS?    NO
Info: COORDINATE PDB         ../../input_mutant_3/2PYP_mutata5_ionized.pdb
Info: STRUCTURE FILE         ../../input_mutant_3/2PYP_mutata5_ionized.psf
Info: PARAMETER file: CHARMM format!
Info: PARAMETERS             ../../input_mutant_3/par_all27_prot_lipid.inp
Info: USING ARITHMETIC MEAN TO COMBINE L-J SIGMA PARAMETERS
Info: BINARY COORDINATES     ../../input_mutant_3/2PYP_mutata5_final.coor
Info: SUMMARY OF PARAMETERS:
Info: 180 BONDS
Info: 447 ANGLES
Info: 566 DIHEDRAL
Info: 46 IMPROPER
Info: 6 CROSSTERM
Info: 119 VDW
Info: 0 VDW_PAIRS
Info: 0 NBTHOLE_PAIRS
Info: STRUCTURE SUMMARY:
Info: 21124 ATOMS
Info: 14751 BONDS
Info: 9928 ANGLES
Info: 5164 DIHEDRALS
Info: 321 IMPROPERS
Info: 121 CROSSTERMS
Info: 0 EXCLUSIONS
Info: 20132 RIGID BONDS
Info: 43240 DEGREES OF FREEDOM
Info: 7385 HYDROGEN GROUPS
Info: 4 ATOMS IN LARGEST HYDROGEN GROUP
Info: 7385 MIGRATION GROUPS
Info: 4 ATOMS IN LARGEST MIGRATION GROUP
Info: TOTAL MASS = 129277 amu
Info: TOTAL CHARGE = 1.72667e-06 e
Info: MASS DENSITY = 1.04144 g/cm^3
Info: ATOM DENSITY = 0.102477 atoms/A^3
Info: ADDED 29760 IMPLICIT EXCLUSIONS
Info: NONBONDED TABLE R-SQUARED SPACING: 0.0625
Info: NONBONDED TABLE SIZE: 769 POINTS
Info: REMOVING COM VELOCITY -0.039783 -0.0945726 0.0411712
Info: Updated CUDA force table with 4096 elements.
Info: Updated CUDA LJ table with 119 x 119 elements.
Info: Found 272 unique exclusion lists needing 836 bytes
ETITLE: TS BOND ANGLE DIHED IMPRP ELECT VDW BOUNDARY MISC KINETIC TOTAL TEMP POTENTIAL TOTAL3 TEMPAVG PRESSURE GPRESSURE VOLUME PRESSAVG GPRESSAVG
ENERGY: 0 379.1721 1043.0013 501.9395 64.7895 -74352.6940 6040.3453 0.0000 0.0000 21199.5936 -45123.8528 493.4376 -66323.4463 -45078.4850 493.4376 978.4407 1013.4752 206133.3660 978.4407 1013.4752
ENERGY: 400000 557.9983 1602.0716 660.1726 121.8315 -54861.0002 3416.5318 0.0000 0.0000 21740.8193 -26761.5751 506.0351 -48502.3944 -26710.9532 497.9269 -24.8737 4.0402 277243.5389 -10.4091 -10.2550
ENERGY: 800000 574.7931 1650.8134 589.3691 120.3041 -54346.8331 3320.4584 0.0000 0.0000 21327.5979 -26763.4971 496.4170 -48091.0951 -26705.3199 498.4628 197.7309 214.3842 279005.3609 1.2709 1.1916
ENERGY: 1200000 562.5084 1516.6472 650.0257 113.1855 -54586.9421 3425.2132 0.0000 0.0000 21289.5564 -27029.8056 495.5316 -48319.3621 -26980.9234 500.0436 49.7477 81.2161 277646.2346 -0.7518 -0.6165
ENERGY: 1600000 594.1017 1647.3064 633.5256 106.9292 -54440.0920 3296.7676 0.0000 0.0000 21652.5319 -26508.9295 503.9801 -48161.4614 -26444.3303 500.4719 -37.3427 -20.8758 278173.1272 2.3956 2.1922
ENERGY: 2000000 607.0197 1543.2535 606.1559 97.0945 -54468.0388 3307.9422 0.0000 0.0000 21413.1519 -26893.4211 498.4083 -48306.5730 -26830.9802 499.8291 -62.0960 -41.2138 277069.7972 7.8074 7.9281
