Info: SIMULATION PARAMETERS:
Info: TIMESTEP               2
Info: NUMBER OF STEPS        200000
Info: STEPS PER CYCLE        10
Info: PERIODIC CELL BASIS 1  57.1156 0 0
Info: PERIODIC CELL BASIS 2  0 59.7148 0
Info: PERIODIC CELL BASIS 3  0 0 60.1826
Info: PERIODIC CELL CENTER   19.531 1.9405 -11.2175
Info: WRAPPING ALL CLUSTERS AROUND PERIODIC BOUNDARIES ON OUTPUT.
Info: FIRST LDB TIMESTEP     50
Info: LAST LDB TIMESTEP     -1
Info: HOM BACKGROUND SCALING 1
Info: PME BACKGROUND SCALING 1
Info: MIN ATOMS PER PATCH    40
Info: INITIAL TEMPERATURE    400
Info: CENTER OF MASS MOVING INITIALLY? NO
Info: DIELECTRIC             1
Info: EXCLUDE                SCALED ONE-FOUR
Info: 1-4 ELECTROSTATICS SCALED BY 1
Info: MODIFIED 1-4 VDW PARAMETERS WILL BE USED
Info: DCD FILENAME           400k_2_mutata5_400ps.dcd
Info: DCD FREQUENCY          2000
Info: DCD FIRST STEP         2000
Info: DCD FILE WILL CONTAIN UNIT CELL DATA
Info: XST FILENAME           400k_2_mutata5_400ps.xst
Info: XST FREQUENCY          2000
Info: NO VELOCITY DCD OUTPUT
Info: NO FORCE DCD OUTPUT
Info: OUTPUT FILENAME        400k_2_mutata5_400ps
Info: BINARY OUTPUT FILES WILL BE USED
Info: RESTART FILENAME       400k_2_mutata5_400ps.restart
Info: RESTART FREQUENCY      200000
Info: BINARY RESTART FILES WILL BE USED
Info: SWITCHING ACTIVE
Info: SWITCHING ON           10
Info: SWITCHING OFF          12
Info: PAIRLIST DISTANCE      14
Info: PAIRLIST SHRINK RATE   0.01
Info: PAIRLIST GROW RATE     0.01
Info: PAIRLIST TRIGGER       0.3
Info: PAIRLISTS PER CYCLE    2
Info: PAIRLISTS ENABLED
Info: MARGIN                 0.495
Info: HYDROGEN GROUP CUTOFF  2.5
Info: PATCH DIMENSION        16.995
Info: ENERGY OUTPUT STEPS    2000
Info: CROSSTERM ENERGY INCLUDED IN DIHEDRAL
Info: TIMING OUTPUT STEPS    2000
Info: PRESSURE OUTPUT STEPS  2000
Info: LANGEVIN DYNAMICS ACTIVE
Info: LANGEVIN TEMPERATURE   400
Info: LANGEVIN USING BBK INTEGRATOR
Info: LANGEVIN DAMPING COEFFICIENT IS 5 INVERSE PS
Info: LANGEVIN DYNAMICS NOT APPLIED TO HYDROGENS
Info: LANGEVIN PISTON PRESSURE CONTROL ACTIVE
Info:        TARGET PRESSURE IS 1.01325 BAR
Info:     OSCILLATION PERIOD IS 200 FS
Info:             DECAY TIME IS 100 FS
Info:     PISTON TEMPERATURE IS 400 K
Info:       PRESSURE CONTROL IS GROUP-BASED
Info:    INITIAL STRAIN RATE IS -6.23963e-05 -6.23963e-05 -6.23963e-05
Info:       CELL FLUCTUATION IS ISOTROPIC
Info: PARTICLE MESH EWALD (PME) ACTIVE
Info: PME TOLERANCE               1e-06
Info: PME EWALD COEFFICIENT       0.257952
Info: PME INTERPOLATION ORDER     4
Info: PME GRID DIMENSIONS         60 60 64
Info: PME MAXIMUM GRID SPACING    1
Info: FULL ELECTROSTATIC EVALUATION FREQUENCY      2
Info: USING VERLET I (r-RESPA) MTS SCHEME.
Info: C1 SPLITTING OF LONG RANGE ELECTROSTATICS
Info: PLACING ATOMS IN PATCHES BY HYDROGEN GROUPS
Info: RIGID BONDS TO HYDROGEN : ALL
Info:         ERROR TOLERANCE : 1e-08
Info:          MAX ITERATIONS : 100
Info: RIGID WATER USING SETTLE ALGORITHM
Info: RANDOM NUMBER SEED     14574398
Info: USE HYDROGEN BONDS?    NO
Info: COORDINATE PDB         ../../input_mutant_5/2PYP_mutata_ionized.pdb
Info: STRUCTURE FILE         ../../input_mutant_5/2PYP_mutata_ionized.psf
Info: PARAMETER file: CHARMM format!
Info: PARAMETERS             ../../input_mutant_5/par_all27_prot_lipid.inp
Info: USING ARITHMETIC MEAN TO COMBINE L-J SIGMA PARAMETERS
Info: BINARY COORDINATES     ../../input_mutant_5/2PYP_mutata_final.coor
Info: SUMMARY OF PARAMETERS:
Info: 180 BONDS
Info: 447 ANGLES
Info: 566 DIHEDRAL
Info: 46 IMPROPER
Info: 6 CROSSTERM
Info: 119 VDW
Info: 0 VDW_PAIRS
Info: 0 NBTHOLE_PAIRS
Info: STRUCTURE SUMMARY:
Info: 21051 ATOMS
Info: 14696 BONDS
Info: 9884 ANGLES
Info: 5127 DIHEDRALS
Info: 324 IMPROPERS
Info: 121 CROSSTERMS
Info: 0 EXCLUSIONS
Info: 20065 RIGID BONDS
Info: 43088 DEGREES OF FREEDOM
Info: 7359 HYDROGEN GROUPS
Info: 4 ATOMS IN LARGEST HYDROGEN GROUP
Info: 7359 MIGRATION GROUPS
Info: 4 ATOMS IN LARGEST MIGRATION GROUP
Info: TOTAL MASS = 128849 amu
Info: TOTAL CHARGE = 1.71177e-06 e
Info: MASS DENSITY = 1.04239 g/cm^3
Info: ATOM DENSITY = 0.102557 atoms/A^3
Info: ADDED 29627 IMPLICIT EXCLUSIONS
Info: NONBONDED TABLE R-SQUARED SPACING: 0.0625
Info: NONBONDED TABLE SIZE: 769 POINTS
Info: REMOVING COM VELOCITY 0.0233407 0.0368292 0.000280454
Info: Updated CUDA force table with 4096 elements.
Info: Updated CUDA LJ table with 119 x 119 elements.
Info: Found 272 unique exclusion lists needing 828 bytes
ETITLE: TS BOND ANGLE DIHED IMPRP ELECT VDW BOUNDARY MISC KINETIC TOTAL TEMP POTENTIAL TOTAL3 TEMPAVG PRESSURE GPRESSURE VOLUME PRESSAVG GPRESSAVG
ENERGY: 0 378.2715 1030.1903 460.7188 71.8779 -74458.5401 6253.0937 0.0000 0.0000 17300.9897 -48963.3984 404.1150 -66264.3881 -48921.0633 404.1150 887.3407 917.5304 205261.6048 887.3407 917.5304
ENERGY: 40000 472.5335 1270.9935 547.2864 100.9146 -64405.2242 4371.1220 0.0000 0.0000 17183.0301 -40459.3441 401.3597 -57642.3743 -40411.6084 398.8775 -121.1805 -90.6492 228290.4904 6.3190 6.3437
ENERGY: 80000 511.3847 1362.5568 534.5351 83.6172 -64335.2981 4381.5427 0.0000 0.0000 16894.2348 -40567.4268 394.6141 -57461.6615 -40509.0558 399.3009 -321.9388 -306.1257 228934.1271 0.0421 0.0449
ENERGY: 120000 478.4115 1343.6454 523.5597 86.5160 -64421.3733 4509.4494 0.0000 0.0000 17063.8968 -40415.8945 398.5770 -57479.7912 -40361.5863 399.7813 -73.4284 -53.1320 229367.8779 -3.4338 -3.2727
ENERGY: 160000 470.0596 1346.7048 520.3442 69.1669 -64414.7318 4438.8090 0.0000 0.0000 17231.5009 -40338.1464 402.4919 -57569.6473 -40272.6534 399.1043 -104.4719 -89.1362 230778.5663 -2.7260 -2.4523
ENERGY: 200000 483.7745 1291.3161 552.4141 63.7997 -64462.3744 4544.9749 0.0000 0.0000 16905.1280 -40620.9672 394.8685 -57526.0952 -40574.9240 398.2099 -133.9495 -114.1357 229778.0291 2.0304 2.0193
