Info: SIMULATION PARAMETERS:
Info: TIMESTEP               2
Info: NUMBER OF STEPS        200000
Info: STEPS PER CYCLE        10
Info: PERIODIC CELL BASIS 1  58.2871 0 0
Info: PERIODIC CELL BASIS 2  0 59.9367 0
Info: PERIODIC CELL BASIS 3  0 0 60.7378
Info: PERIODIC CELL CENTER   18.9173 2.16779 -10.9975
Info: WRAPPING ALL CLUSTERS AROUND PERIODIC BOUNDARIES ON OUTPUT.
Info: FIRST LDB TIMESTEP     50
Info: LAST LDB TIMESTEP     -1
Info: HOM BACKGROUND SCALING 1
Info: PME BACKGROUND SCALING 1
Info: MIN ATOMS PER PATCH    40
Info: INITIAL TEMPERATURE    400
Info: CENTER OF MASS MOVING INITIALLY? NO
Info: DIELECTRIC             1
Info: EXCLUDE                SCALED ONE-FOUR
Info: 1-4 ELECTROSTATICS SCALED BY 1
Info: MODIFIED 1-4 VDW PARAMETERS WILL BE USED
Info: DCD FILENAME           400k_5.dcd
Info: DCD FREQUENCY          2000
Info: DCD FIRST STEP         2000
Info: DCD FILE WILL CONTAIN UNIT CELL DATA
Info: XST FILENAME           400k_5.xst
Info: XST FREQUENCY          2000
Info: NO VELOCITY DCD OUTPUT
Info: NO FORCE DCD OUTPUT
Info: OUTPUT FILENAME        400k_5
Info: BINARY OUTPUT FILES WILL BE USED
Info: RESTART FILENAME       400k_5.restart
Info: RESTART FREQUENCY      100000
Info: BINARY RESTART FILES WILL BE USED
Info: SWITCHING ACTIVE
Info: SWITCHING ON           10
Info: SWITCHING OFF          12
Info: PAIRLIST DISTANCE      14
Info: PAIRLIST SHRINK RATE   0.01
Info: PAIRLIST GROW RATE     0.01
Info: PAIRLIST TRIGGER       0.3
Info: PAIRLISTS PER CYCLE    2
Info: PAIRLISTS ENABLED
Info: MARGIN                 0.495
Info: HYDROGEN GROUP CUTOFF  2.5
Info: PATCH DIMENSION        16.995
Info: ENERGY OUTPUT STEPS    2000
Info: CROSSTERM ENERGY INCLUDED IN DIHEDRAL
Info: TIMING OUTPUT STEPS    2000
Info: PRESSURE OUTPUT STEPS  2000
Info: LANGEVIN DYNAMICS ACTIVE
Info: LANGEVIN TEMPERATURE   400
Info: LANGEVIN USING BBK INTEGRATOR
Info: LANGEVIN DAMPING COEFFICIENT IS 5 INVERSE PS
Info: LANGEVIN DYNAMICS NOT APPLIED TO HYDROGENS
Info: LANGEVIN PISTON PRESSURE CONTROL ACTIVE
Info:        TARGET PRESSURE IS 1.01325 BAR
Info:     OSCILLATION PERIOD IS 200 FS
Info:             DECAY TIME IS 100 FS
Info:     PISTON TEMPERATURE IS 400 K
Info:       PRESSURE CONTROL IS GROUP-BASED
Info:    INITIAL STRAIN RATE IS 1.93157e-05 1.93157e-05 1.93157e-05
Info:       CELL FLUCTUATION IS ISOTROPIC
Info: PARTICLE MESH EWALD (PME) ACTIVE
Info: PME TOLERANCE               1e-06
Info: PME EWALD COEFFICIENT       0.257952
Info: PME INTERPOLATION ORDER     4
Info: PME GRID DIMENSIONS         60 60 64
Info: PME MAXIMUM GRID SPACING    1
Info: FULL ELECTROSTATIC EVALUATION FREQUENCY      2
Info: USING VERLET I (r-RESPA) MTS SCHEME.
Info: C1 SPLITTING OF LONG RANGE ELECTROSTATICS
Info: PLACING ATOMS IN PATCHES BY HYDROGEN GROUPS
Info: RIGID BONDS TO HYDROGEN : ALL
Info:         ERROR TOLERANCE : 1e-08
Info:          MAX ITERATIONS : 100
Info: RIGID WATER USING SETTLE ALGORITHM
Info: RANDOM NUMBER SEED     193629
Info: USE HYDROGEN BONDS?    NO
Info: COORDINATE PDB         ./2PYP_ionized.pdb
Info: STRUCTURE FILE         ./2PYP_ionized.psf
Info: PARAMETER file: CHARMM format!
Info: PARAMETERS             ./par_all27_prot_lipid.inp
Info: USING ARITHMETIC MEAN TO COMBINE L-J SIGMA PARAMETERS
Info: BINARY COORDINATES     ./2PYP_final.coor
Info: SUMMARY OF PARAMETERS:
Info: 180 BONDS
Info: 447 ANGLES
Info: 566 DIHEDRAL
Info: 46 IMPROPER
Info: 6 CROSSTERM
Info: 119 VDW
Info: 0 VDW_PAIRS
Info: 0 NBTHOLE_PAIRS
Info: STRUCTURE SUMMARY:
Info: 21715 ATOMS
Info: 15133 BONDS
Info: 10087 ANGLES
Info: 5094 DIHEDRALS
Info: 322 IMPROPERS
Info: 121 CROSSTERMS
Info: 0 EXCLUSIONS
Info: 20735 RIGID BONDS
Info: 44410 DEGREES OF FREEDOM
Info: 7579 HYDROGEN GROUPS
Info: 4 ATOMS IN LARGEST HYDROGEN GROUP
Info: 7579 MIGRATION GROUPS
Info: 4 ATOMS IN LARGEST MIGRATION GROUP
Info: TOTAL MASS = 132845 amu
Info: TOTAL CHARGE = 1.69314e-06 e
Info: MASS DENSITY = 1.03964 g/cm^3
Info: ATOM DENSITY = 0.102338 atoms/A^3
Info: ADDED 30234 IMPLICIT EXCLUSIONS
Info: NONBONDED TABLE R-SQUARED SPACING: 0.0625
Info: NONBONDED TABLE SIZE: 769 POINTS
Info: REMOVING COM VELOCITY -0.0113043 0.0114852 0.0167991
ETITLE: TS BOND ANGLE DIHED IMPRP ELECT VDW BOUNDARY MISC KINETIC TOTAL TEMP POTENTIAL TOTAL3 TEMPAVG PRESSURE GPRESSURE VOLUME PRESSAVG GPRESSAVG
ENERGY: 0 368.8373 981.3991 483.9657 66.9342 -76475.8231 6331.2190 0.0000 0.0000 17504.2891 -50739.1787 396.6926 -68243.4678 -50696.8519 396.6926 531.3111 558.1678 212189.5522 531.3111 558.1678
ENERGY: 40000 479.6348 1322.1474 522.1475 77.5085 -66351.1074 4478.6481 0.0000 0.0000 17406.7677 -42064.2535 394.4825 -59471.0211 -42011.8214 398.9169 -517.3738 -515.7780 235413.7493 10.6302 10.7880
ENERGY: 80000 522.1026 1308.2149 514.4604 87.3019 -66179.6504 4662.6764 0.0000 0.0000 17453.7049 -41631.1893 395.5462 -59084.8942 -41586.9504 399.2083 -121.8221 -84.6384 235659.7642 4.2155 4.1870
ENERGY: 120000 464.4337 1371.1756 546.4633 77.8368 -66183.6008 4616.4268 0.0000 0.0000 17544.6671 -41562.5975 397.6077 -59107.2646 -41511.3389 399.9030 -266.8935 -233.7917 235381.6469 6.3330 6.4707
ENERGY: 160000 483.6573 1333.5800 553.6706 76.7425 -66398.7977 4674.5311 0.0000 0.0000 17550.2425 -41726.3737 397.7340 -59276.6162 -41678.4279 399.0431 -221.7753 -186.8404 234580.1976 8.5128 8.5120
ENERGY: 200000 475.7526 1292.3219 517.8729 70.8109 -65819.0058 4593.9565 0.0000 0.0000 17584.3157 -41283.9753 398.5062 -58868.2910 -41233.1236 399.4357 -215.6300 -200.0656 237949.3486 0.8440 1.3631
