Info: SIMULATION PARAMETERS:
Info: TIMESTEP               2
Info: NUMBER OF STEPS        2000000
Info: STEPS PER CYCLE        10
Info: PERIODIC CELL BASIS 1  55.2689 0 0
Info: PERIODIC CELL BASIS 2  0 57.8115 0
Info: PERIODIC CELL BASIS 3  0 0 64.5138
Info: PERIODIC CELL CENTER   19.4469 2.11497 -11.3022
Info: WRAPPING ALL CLUSTERS AROUND PERIODIC BOUNDARIES ON OUTPUT.
Info: FIRST LDB TIMESTEP     50
Info: LAST LDB TIMESTEP     -1
Info: HOM BACKGROUND SCALING 1
Info: PME BACKGROUND SCALING 1
Info: MIN ATOMS PER PATCH    40
Info: INITIAL TEMPERATURE    500
Info: CENTER OF MASS MOVING INITIALLY? NO
Info: DIELECTRIC             1
Info: EXCLUDE                SCALED ONE-FOUR
Info: 1-4 ELECTROSTATICS SCALED BY 1
Info: MODIFIED 1-4 VDW PARAMETERS WILL BE USED
Info: DCD FILENAME           500k_4_mutata3_4ns.dcd
Info: DCD FREQUENCY          2000
Info: DCD FIRST STEP         2000
Info: DCD FILE WILL CONTAIN UNIT CELL DATA
Info: XST FILENAME           500k_4_mutata3_4ns.xst
Info: XST FREQUENCY          2000
Info: NO VELOCITY DCD OUTPUT
Info: NO FORCE DCD OUTPUT
Info: OUTPUT FILENAME        500k_4_mutata3_4ns
Info: BINARY OUTPUT FILES WILL BE USED
Info: RESTART FILENAME       500k_4_mutata3_4ns.restart
Info: RESTART FREQUENCY      200000
Info: BINARY RESTART FILES WILL BE USED
Info: SWITCHING ACTIVE
Info: SWITCHING ON           10
Info: SWITCHING OFF          12
Info: PAIRLIST DISTANCE      14
Info: PAIRLIST SHRINK RATE   0.01
Info: PAIRLIST GROW RATE     0.01
Info: PAIRLIST TRIGGER       0.3
Info: PAIRLISTS PER CYCLE    2
Info: PAIRLISTS ENABLED
Info: MARGIN                 0.495
Info: HYDROGEN GROUP CUTOFF  2.5
Info: PATCH DIMENSION        16.995
Info: ENERGY OUTPUT STEPS    2000
Info: CROSSTERM ENERGY INCLUDED IN DIHEDRAL
Info: TIMING OUTPUT STEPS    2000
Info: PRESSURE OUTPUT STEPS  2000
Info: LANGEVIN DYNAMICS ACTIVE
Info: LANGEVIN TEMPERATURE   500
Info: LANGEVIN USING BBK INTEGRATOR
Info: LANGEVIN DAMPING COEFFICIENT IS 5 INVERSE PS
Info: LANGEVIN DYNAMICS NOT APPLIED TO HYDROGENS
Info: LANGEVIN PISTON PRESSURE CONTROL ACTIVE
Info:        TARGET PRESSURE IS 1.01325 BAR
Info:     OSCILLATION PERIOD IS 200 FS
Info:             DECAY TIME IS 100 FS
Info:     PISTON TEMPERATURE IS 500 K
Info:       PRESSURE CONTROL IS GROUP-BASED
Info:    INITIAL STRAIN RATE IS 2.85127e-05 2.85127e-05 2.85127e-05
Info:       CELL FLUCTUATION IS ISOTROPIC
Info: PARTICLE MESH EWALD (PME) ACTIVE
Info: PME TOLERANCE               1e-06
Info: PME EWALD COEFFICIENT       0.257952
Info: PME INTERPOLATION ORDER     4
Info: PME GRID DIMENSIONS         56 60 72
Info: PME MAXIMUM GRID SPACING    1
Info: FULL ELECTROSTATIC EVALUATION FREQUENCY      2
Info: USING VERLET I (r-RESPA) MTS SCHEME.
Info: C1 SPLITTING OF LONG RANGE ELECTROSTATICS
Info: PLACING ATOMS IN PATCHES BY HYDROGEN GROUPS
Info: RIGID BONDS TO HYDROGEN : ALL
Info:         ERROR TOLERANCE : 1e-08
Info:          MAX ITERATIONS : 100
Info: RIGID WATER USING SETTLE ALGORITHM
Info: RANDOM NUMBER SEED     2132563
Info: USE HYDROGEN BONDS?    NO
Info: COORDINATE PDB         ../../input_mutant_3/2PYP_mutata5_ionized.pdb
Info: STRUCTURE FILE         ../../input_mutant_3/2PYP_mutata5_ionized.psf
Info: PARAMETER file: CHARMM format!
Info: PARAMETERS             ../../input_mutant_3/par_all27_prot_lipid.inp
Info: USING ARITHMETIC MEAN TO COMBINE L-J SIGMA PARAMETERS
Info: BINARY COORDINATES     ../../input_mutant_3/2PYP_mutata5_final.coor
Info: SUMMARY OF PARAMETERS:
Info: 180 BONDS
Info: 447 ANGLES
Info: 566 DIHEDRAL
Info: 46 IMPROPER
Info: 6 CROSSTERM
Info: 119 VDW
Info: 0 VDW_PAIRS
Info: 0 NBTHOLE_PAIRS
Info: STRUCTURE SUMMARY:
Info: 21124 ATOMS
Info: 14751 BONDS
Info: 9928 ANGLES
Info: 5164 DIHEDRALS
Info: 321 IMPROPERS
Info: 121 CROSSTERMS
Info: 0 EXCLUSIONS
Info: 20132 RIGID BONDS
Info: 43240 DEGREES OF FREEDOM
Info: 7385 HYDROGEN GROUPS
Info: 4 ATOMS IN LARGEST HYDROGEN GROUP
Info: 7385 MIGRATION GROUPS
Info: 4 ATOMS IN LARGEST MIGRATION GROUP
Info: TOTAL MASS = 129277 amu
Info: TOTAL CHARGE = 1.72667e-06 e
Info: MASS DENSITY = 1.04144 g/cm^3
Info: ATOM DENSITY = 0.102477 atoms/A^3
Info: ADDED 29760 IMPLICIT EXCLUSIONS
Info: NONBONDED TABLE R-SQUARED SPACING: 0.0625
Info: NONBONDED TABLE SIZE: 769 POINTS
Info: REMOVING COM VELOCITY -0.0675535 -0.0575938 -0.0452939
Info: Updated CUDA force table with 4096 elements.
Info: Updated CUDA LJ table with 119 x 119 elements.
Info: Found 272 unique exclusion lists needing 836 bytes
ETITLE: TS BOND ANGLE DIHED IMPRP ELECT VDW BOUNDARY MISC KINETIC TOTAL TEMP POTENTIAL TOTAL3 TEMPAVG PRESSURE GPRESSURE VOLUME PRESSAVG GPRESSAVG
ENERGY: 0 379.1721 1043.0013 501.9395 64.7895 -74352.6940 6040.3453 0.0000 0.0000 21134.8693 -45188.5770 491.9311 -66323.4463 -45143.2940 491.9311 1003.6294 1038.4271 206133.3660 1003.6294 1038.4271
ENERGY: 400000 543.2056 1561.8430 634.6031 105.8205 -54356.3058 3242.8065 0.0000 0.0000 21399.9342 -26868.0929 498.1007 -48268.0271 -26805.0056 498.2112 62.2337 80.4502 277998.9772 1.5213 1.4512
ENERGY: 800000 616.7523 1625.7184 606.3314 86.3820 -54687.1667 3460.4723 0.0000 0.0000 21675.6646 -26615.8457 504.5185 -48291.5103 -26560.0411 498.7676 -135.6054 -116.0204 277123.4315 0.0341 0.1061
ENERGY: 1200000 630.3995 1561.8029 659.5843 102.3271 -54728.1212 3441.6342 0.0000 0.0000 21456.0418 -26876.3314 499.4066 -48332.3732 -26843.1566 498.2192 26.8985 68.2594 275126.2072 5.4550 5.2714
ENERGY: 1600000 611.7436 1617.0991 619.2746 114.1447 -54663.7197 3249.5534 0.0000 0.0000 21452.8132 -26999.0913 499.3315 -48451.9045 -26933.7791 499.0539 -359.1217 -337.4202 277095.3336 -3.6790 -3.7956
ENERGY: 2000000 594.3746 1593.8583 600.7986 100.4266 -54367.1631 3277.4123 0.0000 0.0000 21337.2277 -26863.0650 496.6411 -48200.2927 -26804.2501 497.7815 -23.6978 12.0950 276597.9325 1.7615 1.6031
