Info: SIMULATION PARAMETERS:
Info: TIMESTEP               2
Info: NUMBER OF STEPS        200000
Info: STEPS PER CYCLE        10
Info: PERIODIC CELL BASIS 1  59.1391 0 0
Info: PERIODIC CELL BASIS 2  0 63.1519 0
Info: PERIODIC CELL BASIS 3  0 0 60.2599
Info: PERIODIC CELL CENTER   18.4185 3.7149 -11.2402
Info: WRAPPING ALL CLUSTERS AROUND PERIODIC BOUNDARIES ON OUTPUT.
Info: FIRST LDB TIMESTEP     50
Info: LAST LDB TIMESTEP     -1
Info: HOM BACKGROUND SCALING 1
Info: PME BACKGROUND SCALING 1
Info: MIN ATOMS PER PATCH    40
Info: INITIAL TEMPERATURE    400
Info: CENTER OF MASS MOVING INITIALLY? NO
Info: DIELECTRIC             1
Info: EXCLUDE                SCALED ONE-FOUR
Info: 1-4 ELECTROSTATICS SCALED BY 1
Info: MODIFIED 1-4 VDW PARAMETERS WILL BE USED
Info: DCD FILENAME           400k_6_mutata2.dcd
Info: DCD FREQUENCY          2000
Info: DCD FIRST STEP         2000
Info: DCD FILE WILL CONTAIN UNIT CELL DATA
Info: XST FILENAME           400k_6_mutata2.xst
Info: XST FREQUENCY          2000
Info: NO VELOCITY DCD OUTPUT
Info: NO FORCE DCD OUTPUT
Info: OUTPUT FILENAME        400k_6_mutata2
Info: BINARY OUTPUT FILES WILL BE USED
Info: RESTART FILENAME       400k_6_mutata2.restart
Info: RESTART FREQUENCY      100000
Info: BINARY RESTART FILES WILL BE USED
Info: SWITCHING ACTIVE
Info: SWITCHING ON           10
Info: SWITCHING OFF          12
Info: PAIRLIST DISTANCE      14
Info: PAIRLIST SHRINK RATE   0.01
Info: PAIRLIST GROW RATE     0.01
Info: PAIRLIST TRIGGER       0.3
Info: PAIRLISTS PER CYCLE    2
Info: PAIRLISTS ENABLED
Info: MARGIN                 0.495
Info: HYDROGEN GROUP CUTOFF  2.5
Info: PATCH DIMENSION        16.995
Info: ENERGY OUTPUT STEPS    2000
Info: CROSSTERM ENERGY INCLUDED IN DIHEDRAL
Info: TIMING OUTPUT STEPS    2000
Info: PRESSURE OUTPUT STEPS  2000
Info: LANGEVIN DYNAMICS ACTIVE
Info: LANGEVIN TEMPERATURE   400
Info: LANGEVIN USING BBK INTEGRATOR
Info: LANGEVIN DAMPING COEFFICIENT IS 5 INVERSE PS
Info: LANGEVIN DYNAMICS NOT APPLIED TO HYDROGENS
Info: LANGEVIN PISTON PRESSURE CONTROL ACTIVE
Info:        TARGET PRESSURE IS 1.01325 BAR
Info:     OSCILLATION PERIOD IS 200 FS
Info:             DECAY TIME IS 100 FS
Info:     PISTON TEMPERATURE IS 400 K
Info:       PRESSURE CONTROL IS GROUP-BASED
Info:    INITIAL STRAIN RATE IS -1.92523e-05 -1.92523e-05 -1.92523e-05
Info:       CELL FLUCTUATION IS ISOTROPIC
Info: PARTICLE MESH EWALD (PME) ACTIVE
Info: PME TOLERANCE               1e-06
Info: PME EWALD COEFFICIENT       0.257952
Info: PME INTERPOLATION ORDER     4
Info: PME GRID DIMENSIONS         60 64 64
Info: PME MAXIMUM GRID SPACING    1
Info: FULL ELECTROSTATIC EVALUATION FREQUENCY      2
Info: USING VERLET I (r-RESPA) MTS SCHEME.
Info: C1 SPLITTING OF LONG RANGE ELECTROSTATICS
Info: PLACING ATOMS IN PATCHES BY HYDROGEN GROUPS
Info: RIGID BONDS TO HYDROGEN : ALL
Info:         ERROR TOLERANCE : 1e-08
Info:          MAX ITERATIONS : 100
Info: RIGID WATER USING SETTLE ALGORITHM
Info: RANDOM NUMBER SEED     90909
Info: USE HYDROGEN BONDS?    NO
Info: COORDINATE PDB         ../../input_mutant_2/2PYP_mutata2_ionized.pdb
Info: STRUCTURE FILE         ../../input_mutant_2/2PYP_mutata2_ionized.psf
Info: PARAMETER file: CHARMM format!
Info: PARAMETERS             ../../input_mutant_2/par_all27_prot_lipid.inp
Info: USING ARITHMETIC MEAN TO COMBINE L-J SIGMA PARAMETERS
Info: BINARY COORDINATES     ../../input_mutant_2/2PYP_mutata2_final.coor
Info: SUMMARY OF PARAMETERS:
Info: 180 BONDS
Info: 447 ANGLES
Info: 566 DIHEDRAL
Info: 46 IMPROPER
Info: 6 CROSSTERM
Info: 119 VDW
Info: 0 VDW_PAIRS
Info: 0 NBTHOLE_PAIRS
Info: STRUCTURE SUMMARY:
Info: 23087 ATOMS
Info: 16069 BONDS
Info: 10621 ANGLES
Info: 5232 DIHEDRALS
Info: 327 IMPROPERS
Info: 121 CROSSTERMS
Info: 0 EXCLUSIONS
Info: 22087 RIGID BONDS
Info: 47174 DEGREES OF FREEDOM
Info: 8039 HYDROGEN GROUPS
Info: 4 ATOMS IN LARGEST HYDROGEN GROUP
Info: 8039 MIGRATION GROUPS
Info: 4 ATOMS IN LARGEST MIGRATION GROUP
Info: TOTAL MASS = 141020 amu
Info: TOTAL CHARGE = 1.76765e-06 e
Info: MASS DENSITY = 1.04052 g/cm^3
Info: ATOM DENSITY = 0.102584 atoms/A^3
Info: ADDED 31842 IMPLICIT EXCLUSIONS
Info: NONBONDED TABLE R-SQUARED SPACING: 0.0625
Info: NONBONDED TABLE SIZE: 769 POINTS
Info: REMOVING COM VELOCITY 0.137195 0.0902629 -0.00971341
Info: Updated CUDA force table with 4096 elements.
Info: Updated CUDA LJ table with 119 x 119 elements.
Info: Found 272 unique exclusion lists needing 848 bytes
ETITLE: TS BOND ANGLE DIHED IMPRP ELECT VDW BOUNDARY MISC KINETIC TOTAL TEMP POTENTIAL TOTAL3 TEMPAVG PRESSURE GPRESSURE VOLUME PRESSAVG GPRESSAVG
ENERGY: 0 413.0961 1063.3539 518.0864 65.8009 -81940.8067 6741.5240 0.0000 0.0000 18879.7408 -54259.2046 402.7947 -73138.9454 -54212.7814 402.7947 803.0990 833.5689 225055.5131 803.0990 833.5689
ENERGY: 40000 488.2246 1374.6644 542.5339 107.4660 -71395.4598 5055.9471 0.0000 0.0000 18721.0592 -45105.5646 399.4092 -63826.6238 -45036.3484 398.6810 293.0501 319.7039 250114.7173 -0.1668 -0.1728
ENERGY: 80000 491.0243 1322.9242 541.2823 88.6965 -71178.0881 4962.2591 0.0000 0.0000 18605.3705 -45166.5312 396.9410 -63771.9017 -45114.9356 399.5147 -162.7833 -153.4803 251336.5120 -8.3060 -8.1516
ENERGY: 120000 506.3370 1357.7689 558.6981 91.4842 -71485.8620 5235.5574 0.0000 0.0000 18699.6260 -45036.3905 398.9520 -63736.0165 -44984.9086 398.5785 403.9514 433.4073 249251.7641 -0.2798 -0.3016
ENERGY: 160000 533.5834 1317.4588 576.0891 79.8659 -70970.0149 4903.3280 0.0000 0.0000 18842.6886 -44717.0011 402.0042 -63559.6897 -44669.9075 399.3434 -173.4924 -139.0312 251099.7665 -4.0914 -4.3441
ENERGY: 200000 488.0749 1378.6396 561.7365 96.5496 -71062.4846 4977.8588 0.0000 0.0000 18839.6796 -44719.9456 401.9400 -63559.6252 -44665.5701 400.1229 30.7149 53.2676 251932.6741 8.8125 8.7225
