Info: SIMULATION PARAMETERS:
Info: TIMESTEP               2
Info: NUMBER OF STEPS        200000
Info: STEPS PER CYCLE        10
Info: PERIODIC CELL BASIS 1  58.4134 0 0
Info: PERIODIC CELL BASIS 2  0 60.2871 0
Info: PERIODIC CELL BASIS 3  0 0 60.409
Info: PERIODIC CELL CENTER   20.1501 2.35997 -11.2844
Info: WRAPPING ALL CLUSTERS AROUND PERIODIC BOUNDARIES ON OUTPUT.
Info: FIRST LDB TIMESTEP     50
Info: LAST LDB TIMESTEP     -1
Info: HOM BACKGROUND SCALING 1
Info: PME BACKGROUND SCALING 1
Info: MIN ATOMS PER PATCH    40
Info: INITIAL TEMPERATURE    450
Info: CENTER OF MASS MOVING INITIALLY? NO
Info: DIELECTRIC             1
Info: EXCLUDE                SCALED ONE-FOUR
Info: 1-4 ELECTROSTATICS SCALED BY 1
Info: MODIFIED 1-4 VDW PARAMETERS WILL BE USED
Info: DCD FILENAME           400k_7_mutata.dcd
Info: DCD FREQUENCY          2000
Info: DCD FIRST STEP         2000
Info: DCD FILE WILL CONTAIN UNIT CELL DATA
Info: XST FILENAME           400k_7_mutata.xst
Info: XST FREQUENCY          2000
Info: NO VELOCITY DCD OUTPUT
Info: NO FORCE DCD OUTPUT
Info: OUTPUT FILENAME        400k_7_mutata
Info: BINARY OUTPUT FILES WILL BE USED
Info: RESTART FILENAME       400k_7_mutata.restart
Info: RESTART FREQUENCY      100000
Info: BINARY RESTART FILES WILL BE USED
Info: SWITCHING ACTIVE
Info: SWITCHING ON           10
Info: SWITCHING OFF          12
Info: PAIRLIST DISTANCE      14
Info: PAIRLIST SHRINK RATE   0.01
Info: PAIRLIST GROW RATE     0.01
Info: PAIRLIST TRIGGER       0.3
Info: PAIRLISTS PER CYCLE    2
Info: PAIRLISTS ENABLED
Info: MARGIN                 0.495
Info: HYDROGEN GROUP CUTOFF  2.5
Info: PATCH DIMENSION        16.995
Info: ENERGY OUTPUT STEPS    2000
Info: CROSSTERM ENERGY INCLUDED IN DIHEDRAL
Info: TIMING OUTPUT STEPS    2000
Info: PRESSURE OUTPUT STEPS  2000
Info: LANGEVIN DYNAMICS ACTIVE
Info: LANGEVIN TEMPERATURE   450
Info: LANGEVIN USING BBK INTEGRATOR
Info: LANGEVIN DAMPING COEFFICIENT IS 5 INVERSE PS
Info: LANGEVIN DYNAMICS NOT APPLIED TO HYDROGENS
Info: LANGEVIN PISTON PRESSURE CONTROL ACTIVE
Info:        TARGET PRESSURE IS 1.01325 BAR
Info:     OSCILLATION PERIOD IS 200 FS
Info:             DECAY TIME IS 100 FS
Info:     PISTON TEMPERATURE IS 450 K
Info:       PRESSURE CONTROL IS GROUP-BASED
Info:    INITIAL STRAIN RATE IS 4.38763e-05 4.38763e-05 4.38763e-05
Info:       CELL FLUCTUATION IS ISOTROPIC
Info: PARTICLE MESH EWALD (PME) ACTIVE
Info: PME TOLERANCE               1e-06
Info: PME EWALD COEFFICIENT       0.257952
Info: PME INTERPOLATION ORDER     4
Info: PME GRID DIMENSIONS         60 64 64
Info: PME MAXIMUM GRID SPACING    1
Info: FULL ELECTROSTATIC EVALUATION FREQUENCY      2
Info: USING VERLET I (r-RESPA) MTS SCHEME.
Info: C1 SPLITTING OF LONG RANGE ELECTROSTATICS
Info: PLACING ATOMS IN PATCHES BY HYDROGEN GROUPS
Info: RIGID BONDS TO HYDROGEN : ALL
Info:         ERROR TOLERANCE : 1e-08
Info:          MAX ITERATIONS : 100
Info: RIGID WATER USING SETTLE ALGORITHM
Info: RANDOM NUMBER SEED     398467
Info: USE HYDROGEN BONDS?    NO
Info: COORDINATE PDB         ../../input_mutant_1/2PYP_mutata1_ionized.pdb
Info: STRUCTURE FILE         ../../input_mutant_1/2PYP_mutata1_ionized.psf
Info: PARAMETER file: CHARMM format!
Info: PARAMETERS             ../../input_mutant_1/par_all27_prot_lipid.inp
Info: USING ARITHMETIC MEAN TO COMBINE L-J SIGMA PARAMETERS
Info: BINARY COORDINATES     ../../input_mutant_1/2PYP_mutata1_final.coor
Info: SUMMARY OF PARAMETERS:
Info: 180 BONDS
Info: 447 ANGLES
Info: 566 DIHEDRAL
Info: 46 IMPROPER
Info: 6 CROSSTERM
Info: 119 VDW
Info: 0 VDW_PAIRS
Info: 0 NBTHOLE_PAIRS
Info: STRUCTURE SUMMARY:
Info: 21801 ATOMS
Info: 15220 BONDS
Info: 10230 ANGLES
Info: 5308 DIHEDRALS
Info: 323 IMPROPERS
Info: 121 CROSSTERMS
Info: 0 EXCLUSIONS
Info: 20790 RIGID BONDS
Info: 44613 DEGREES OF FREEDOM
Info: 7613 HYDROGEN GROUPS
Info: 4 ATOMS IN LARGEST HYDROGEN GROUP
Info: 7613 MIGRATION GROUPS
Info: 4 ATOMS IN LARGEST MIGRATION GROUP
Info: TOTAL MASS = 133337 amu
Info: TOTAL CHARGE = 1.7453e-06 e
Info: MASS DENSITY = 1.04081 g/cm^3
Info: ATOM DENSITY = 0.10248 atoms/A^3
Info: ADDED 30670 IMPLICIT EXCLUSIONS
Info: NONBONDED TABLE R-SQUARED SPACING: 0.0625
Info: NONBONDED TABLE SIZE: 769 POINTS
Info: REMOVING COM VELOCITY -0.0262608 0.020098 0.0382572
Info: Updated CUDA force table with 4096 elements.
Info: Updated CUDA LJ table with 119 x 119 elements.
Info: Found 271 unique exclusion lists needing 840 bytes
ETITLE: TS BOND ANGLE DIHED IMPRP ELECT VDW BOUNDARY MISC KINETIC TOTAL TEMP POTENTIAL TOTAL3 TEMPAVG PRESSURE GPRESSURE VOLUME PRESSAVG GPRESSAVG
ENERGY: 0 382.7391 1050.9087 501.0889 61.6262 -77382.6418 6271.0631 0.0000 0.0000 19951.3782 -49163.8375 450.0926 -69115.2158 -49119.4024 450.0926 750.0397 782.3060 212734.8654 750.0397 782.3060
ENERGY: 40000 520.9505 1441.9747 634.3557 80.8571 -62242.4747 3917.3263 0.0000 0.0000 20121.5240 -35525.4865 453.9310 -55647.0105 -35461.5224 449.8913 -50.1959 -12.2473 255334.4605 7.6556 7.8008
ENERGY: 80000 519.7279 1551.5913 629.9800 93.1422 -62615.1413 4127.6241 0.0000 0.0000 19985.4691 -35707.6068 450.8617 -55693.0759 -35651.4755 447.4861 41.2275 64.6533 254909.6769 10.2945 10.3822
ENERGY: 120000 514.6089 1475.4549 599.0770 86.9755 -62486.5505 4238.8607 0.0000 0.0000 19952.9866 -35618.5870 450.1289 -55571.5735 -35562.4583 449.1419 295.2953 324.8305 254917.1454 -3.6919 -3.5399
ENERGY: 160000 543.1544 1478.0423 618.0971 90.5310 -61927.0922 3897.3967 0.0000 0.0000 19844.3025 -35455.5683 447.6770 -55299.8708 -35401.3390 450.2833 -154.7176 -122.1007 256837.9624 -0.9437 -0.6326
ENERGY: 200000 545.7226 1475.9056 599.9359 100.9901 -62338.8094 4088.4402 0.0000 0.0000 20056.7479 -35471.0671 452.4697 -55527.8151 -35410.5651 448.1363 34.0053 57.5461 254929.5916 -0.1054 -0.2172
