Info: SIMULATION PARAMETERS:
Info: TIMESTEP               2
Info: NUMBER OF STEPS        1000000
Info: STEPS PER CYCLE        10
Info: PERIODIC CELL BASIS 1  55.2689 0 0
Info: PERIODIC CELL BASIS 2  0 57.8115 0
Info: PERIODIC CELL BASIS 3  0 0 64.5138
Info: PERIODIC CELL CENTER   19.4469 2.11497 -11.3022
Info: WRAPPING ALL CLUSTERS AROUND PERIODIC BOUNDARIES ON OUTPUT.
Info: FIRST LDB TIMESTEP     50
Info: LAST LDB TIMESTEP     -1
Info: HOM BACKGROUND SCALING 1
Info: PME BACKGROUND SCALING 1
Info: MIN ATOMS PER PATCH    40
Info: INITIAL TEMPERATURE    400
Info: CENTER OF MASS MOVING INITIALLY? NO
Info: DIELECTRIC             1
Info: EXCLUDE                SCALED ONE-FOUR
Info: 1-4 ELECTROSTATICS SCALED BY 1
Info: MODIFIED 1-4 VDW PARAMETERS WILL BE USED
Info: DCD FILENAME           400k_1_mutata_lunga.dcd
Info: DCD FREQUENCY          2000
Info: DCD FIRST STEP         2000
Info: DCD FILE WILL CONTAIN UNIT CELL DATA
Info: XST FILENAME           400k_1_mutata_lunga.xst
Info: XST FREQUENCY          2000
Info: NO VELOCITY DCD OUTPUT
Info: NO FORCE DCD OUTPUT
Info: OUTPUT FILENAME        400k_1_mutata_lunga
Info: BINARY OUTPUT FILES WILL BE USED
Info: RESTART FILENAME       400k_1_mutata_lunga.restart
Info: RESTART FREQUENCY      200000
Info: BINARY RESTART FILES WILL BE USED
Info: SWITCHING ACTIVE
Info: SWITCHING ON           10
Info: SWITCHING OFF          12
Info: PAIRLIST DISTANCE      14
Info: PAIRLIST SHRINK RATE   0.01
Info: PAIRLIST GROW RATE     0.01
Info: PAIRLIST TRIGGER       0.3
Info: PAIRLISTS PER CYCLE    2
Info: PAIRLISTS ENABLED
Info: MARGIN                 0.495
Info: HYDROGEN GROUP CUTOFF  2.5
Info: PATCH DIMENSION        16.995
Info: ENERGY OUTPUT STEPS    2000
Info: CROSSTERM ENERGY INCLUDED IN DIHEDRAL
Info: TIMING OUTPUT STEPS    2000
Info: PRESSURE OUTPUT STEPS  2000
Info: LANGEVIN DYNAMICS ACTIVE
Info: LANGEVIN TEMPERATURE   400
Info: LANGEVIN USING BBK INTEGRATOR
Info: LANGEVIN DAMPING COEFFICIENT IS 5 INVERSE PS
Info: LANGEVIN DYNAMICS NOT APPLIED TO HYDROGENS
Info: LANGEVIN PISTON PRESSURE CONTROL ACTIVE
Info:        TARGET PRESSURE IS 1.01325 BAR
Info:     OSCILLATION PERIOD IS 200 FS
Info:             DECAY TIME IS 100 FS
Info:     PISTON TEMPERATURE IS 400 K
Info:       PRESSURE CONTROL IS GROUP-BASED
Info:    INITIAL STRAIN RATE IS 2.85127e-05 2.85127e-05 2.85127e-05
Info:       CELL FLUCTUATION IS ISOTROPIC
Info: PARTICLE MESH EWALD (PME) ACTIVE
Info: PME TOLERANCE               1e-06
Info: PME EWALD COEFFICIENT       0.257952
Info: PME INTERPOLATION ORDER     4
Info: PME GRID DIMENSIONS         56 60 72
Info: PME MAXIMUM GRID SPACING    1
Info: FULL ELECTROSTATIC EVALUATION FREQUENCY      2
Info: USING VERLET I (r-RESPA) MTS SCHEME.
Info: C1 SPLITTING OF LONG RANGE ELECTROSTATICS
Info: PLACING ATOMS IN PATCHES BY HYDROGEN GROUPS
Info: RIGID BONDS TO HYDROGEN : ALL
Info:         ERROR TOLERANCE : 1e-08
Info:          MAX ITERATIONS : 100
Info: RIGID WATER USING SETTLE ALGORITHM
Info: RANDOM NUMBER SEED     234678
Info: USE HYDROGEN BONDS?    NO
Info: COORDINATE PDB         ../../input_mutant_3/2PYP_mutata5_ionized.pdb
Info: STRUCTURE FILE         ../../input_mutant_3/2PYP_mutata5_ionized.psf
Info: PARAMETER file: CHARMM format!
Info: PARAMETERS             ../../input_mutant_3/par_all27_prot_lipid.inp
Info: USING ARITHMETIC MEAN TO COMBINE L-J SIGMA PARAMETERS
Info: BINARY COORDINATES     ../../input_mutant_3/2PYP_mutata5_final.coor
Info: SUMMARY OF PARAMETERS:
Info: 180 BONDS
Info: 447 ANGLES
Info: 566 DIHEDRAL
Info: 46 IMPROPER
Info: 6 CROSSTERM
Info: 119 VDW
Info: 0 VDW_PAIRS
Info: 0 NBTHOLE_PAIRS
Info: STRUCTURE SUMMARY:
Info: 21124 ATOMS
Info: 14751 BONDS
Info: 9928 ANGLES
Info: 5164 DIHEDRALS
Info: 321 IMPROPERS
Info: 121 CROSSTERMS
Info: 0 EXCLUSIONS
Info: 20132 RIGID BONDS
Info: 43240 DEGREES OF FREEDOM
Info: 7385 HYDROGEN GROUPS
Info: 4 ATOMS IN LARGEST HYDROGEN GROUP
Info: 7385 MIGRATION GROUPS
Info: 4 ATOMS IN LARGEST MIGRATION GROUP
Info: TOTAL MASS = 129277 amu
Info: TOTAL CHARGE = 1.72667e-06 e
Info: MASS DENSITY = 1.04144 g/cm^3
Info: ATOM DENSITY = 0.102477 atoms/A^3
Info: ADDED 29760 IMPLICIT EXCLUSIONS
Info: NONBONDED TABLE R-SQUARED SPACING: 0.0625
Info: NONBONDED TABLE SIZE: 769 POINTS
Info: REMOVING COM VELOCITY -0.00149071 -0.0440347 0.0196366
Info: Updated CUDA force table with 4096 elements.
Info: Updated CUDA LJ table with 119 x 119 elements.
Info: Found 272 unique exclusion lists needing 836 bytes
ETITLE: TS BOND ANGLE DIHED IMPRP ELECT VDW BOUNDARY MISC KINETIC TOTAL TEMP POTENTIAL TOTAL3 TEMPAVG PRESSURE GPRESSURE VOLUME PRESSAVG GPRESSAVG
ENERGY: 0 379.1721 1043.0013 501.9395 64.7895 -74352.6940 6040.3453 0.0000 0.0000 17142.6111 -49180.8353 399.0081 -66323.4463 -49137.6120 399.0081 488.6500 523.1208 206133.3660 488.6500 523.1208
ENERGY: 200000 465.1799 1308.8677 571.3297 86.9259 -64482.7665 4446.6049 0.0000 0.0000 17299.4865 -40304.3718 402.6595 -57603.8584 -40258.4955 399.8482 18.9483 31.3750 230470.5130 6.7383 6.5081
ENERGY: 400000 491.8705 1378.1887 552.3609 78.2132 -64795.7753 4542.4933 0.0000 0.0000 17136.5690 -40616.0798 398.8674 -57752.6488 -40566.1383 398.2494 -82.0574 -58.6227 230201.9635 -0.6314 -0.7927
ENERGY: 600000 496.0710 1310.1669 528.9965 88.0608 -64877.0464 4492.8321 0.0000 0.0000 17106.2506 -40854.6686 398.1617 -57960.9193 -40808.9951 399.2677 -41.5431 -15.0774 229101.2859 5.6171 5.7086
ENERGY: 800000 502.4795 1330.8114 535.1328 89.1115 -64916.2531 4414.5024 0.0000 0.0000 16948.4727 -41095.7429 394.4893 -58044.2156 -41039.7525 399.4713 -237.5226 -208.1822 228374.5776 9.0455 8.8379
ENERGY: 1000000 509.0258 1395.5717 560.0169 75.1658 -65247.4763 4884.4501 0.0000 0.0000 17091.7976 -40731.4484 397.8253 -57823.2460 -40689.4584 399.3629 219.9549 257.6396 229425.0978 7.1091 6.9519
