Info: SIMULATION PARAMETERS:
Info: TIMESTEP               2
Info: NUMBER OF STEPS        200000
Info: STEPS PER CYCLE        10
Info: PERIODIC CELL BASIS 1  58.2871 0 0
Info: PERIODIC CELL BASIS 2  0 59.9367 0
Info: PERIODIC CELL BASIS 3  0 0 60.7378
Info: PERIODIC CELL CENTER   18.9173 2.16779 -10.9975
Info: WRAPPING ALL CLUSTERS AROUND PERIODIC BOUNDARIES ON OUTPUT.
Info: FIRST LDB TIMESTEP     50
Info: LAST LDB TIMESTEP     -1
Info: HOM BACKGROUND SCALING 1
Info: PME BACKGROUND SCALING 1
Info: MIN ATOMS PER PATCH    40
Info: INITIAL TEMPERATURE    400
Info: CENTER OF MASS MOVING INITIALLY? NO
Info: DIELECTRIC             1
Info: EXCLUDE                SCALED ONE-FOUR
Info: 1-4 ELECTROSTATICS SCALED BY 1
Info: MODIFIED 1-4 VDW PARAMETERS WILL BE USED
Info: DCD FILENAME           400k_4.dcd
Info: DCD FREQUENCY          2000
Info: DCD FIRST STEP         2000
Info: DCD FILE WILL CONTAIN UNIT CELL DATA
Info: XST FILENAME           400k_4.xst
Info: XST FREQUENCY          2000
Info: NO VELOCITY DCD OUTPUT
Info: NO FORCE DCD OUTPUT
Info: OUTPUT FILENAME        400k_4
Info: BINARY OUTPUT FILES WILL BE USED
Info: RESTART FILENAME       400k_4.restart
Info: RESTART FREQUENCY      100000
Info: BINARY RESTART FILES WILL BE USED
Info: SWITCHING ACTIVE
Info: SWITCHING ON           10
Info: SWITCHING OFF          12
Info: PAIRLIST DISTANCE      14
Info: PAIRLIST SHRINK RATE   0.01
Info: PAIRLIST GROW RATE     0.01
Info: PAIRLIST TRIGGER       0.3
Info: PAIRLISTS PER CYCLE    2
Info: PAIRLISTS ENABLED
Info: MARGIN                 0.495
Info: HYDROGEN GROUP CUTOFF  2.5
Info: PATCH DIMENSION        16.995
Info: ENERGY OUTPUT STEPS    2000
Info: CROSSTERM ENERGY INCLUDED IN DIHEDRAL
Info: TIMING OUTPUT STEPS    2000
Info: PRESSURE OUTPUT STEPS  2000
Info: LANGEVIN DYNAMICS ACTIVE
Info: LANGEVIN TEMPERATURE   400
Info: LANGEVIN USING BBK INTEGRATOR
Info: LANGEVIN DAMPING COEFFICIENT IS 5 INVERSE PS
Info: LANGEVIN DYNAMICS NOT APPLIED TO HYDROGENS
Info: LANGEVIN PISTON PRESSURE CONTROL ACTIVE
Info:        TARGET PRESSURE IS 1.01325 BAR
Info:     OSCILLATION PERIOD IS 200 FS
Info:             DECAY TIME IS 100 FS
Info:     PISTON TEMPERATURE IS 400 K
Info:       PRESSURE CONTROL IS GROUP-BASED
Info:    INITIAL STRAIN RATE IS 1.93157e-05 1.93157e-05 1.93157e-05
Info:       CELL FLUCTUATION IS ISOTROPIC
Info: PARTICLE MESH EWALD (PME) ACTIVE
Info: PME TOLERANCE               1e-06
Info: PME EWALD COEFFICIENT       0.257952
Info: PME INTERPOLATION ORDER     4
Info: PME GRID DIMENSIONS         60 60 64
Info: PME MAXIMUM GRID SPACING    1
Info: FULL ELECTROSTATIC EVALUATION FREQUENCY      2
Info: USING VERLET I (r-RESPA) MTS SCHEME.
Info: C1 SPLITTING OF LONG RANGE ELECTROSTATICS
Info: PLACING ATOMS IN PATCHES BY HYDROGEN GROUPS
Info: RIGID BONDS TO HYDROGEN : ALL
Info:         ERROR TOLERANCE : 1e-08
Info:          MAX ITERATIONS : 100
Info: RIGID WATER USING SETTLE ALGORITHM
Info: RANDOM NUMBER SEED     48290
Info: USE HYDROGEN BONDS?    NO
Info: COORDINATE PDB         ./2PYP_ionized.pdb
Info: STRUCTURE FILE         ./2PYP_ionized.psf
Info: PARAMETER file: CHARMM format!
Info: PARAMETERS             ./par_all27_prot_lipid.inp
Info: USING ARITHMETIC MEAN TO COMBINE L-J SIGMA PARAMETERS
Info: BINARY COORDINATES     ./2PYP_final.coor
Info: SUMMARY OF PARAMETERS:
Info: 180 BONDS
Info: 447 ANGLES
Info: 566 DIHEDRAL
Info: 46 IMPROPER
Info: 6 CROSSTERM
Info: 119 VDW
Info: 0 VDW_PAIRS
Info: 0 NBTHOLE_PAIRS
Info: STRUCTURE SUMMARY:
Info: 21715 ATOMS
Info: 15133 BONDS
Info: 10087 ANGLES
Info: 5094 DIHEDRALS
Info: 322 IMPROPERS
Info: 121 CROSSTERMS
Info: 0 EXCLUSIONS
Info: 20735 RIGID BONDS
Info: 44410 DEGREES OF FREEDOM
Info: 7579 HYDROGEN GROUPS
Info: 4 ATOMS IN LARGEST HYDROGEN GROUP
Info: 7579 MIGRATION GROUPS
Info: 4 ATOMS IN LARGEST MIGRATION GROUP
Info: TOTAL MASS = 132845 amu
Info: TOTAL CHARGE = 1.69314e-06 e
Info: MASS DENSITY = 1.03964 g/cm^3
Info: ATOM DENSITY = 0.102338 atoms/A^3
Info: ADDED 30234 IMPLICIT EXCLUSIONS
Info: NONBONDED TABLE R-SQUARED SPACING: 0.0625
Info: NONBONDED TABLE SIZE: 769 POINTS
Info: REMOVING COM VELOCITY 0.0256606 0.0400616 0.104719
ETITLE: TS BOND ANGLE DIHED IMPRP ELECT VDW BOUNDARY MISC KINETIC TOTAL TEMP POTENTIAL TOTAL3 TEMPAVG PRESSURE GPRESSURE VOLUME PRESSAVG GPRESSAVG
ENERGY: 0 368.8373 981.3991 483.9657 66.9342 -76475.8231 6331.2190 0.0000 0.0000 17449.4564 -50794.0114 395.4499 -68243.4678 -50751.8654 395.4499 550.2228 576.7338 212189.5522 550.2228 576.7338
ENERGY: 40000 450.6184 1300.3689 522.1801 75.7900 -65951.0894 4509.5836 0.0000 0.0000 17342.5787 -41749.9697 393.0278 -59092.5484 -41704.7356 399.6198 -323.5459 -295.3915 235940.5175 11.8100 11.6779
ENERGY: 80000 477.9526 1314.9272 523.4178 93.7113 -66445.2054 4788.7966 0.0000 0.0000 17767.3033 -41479.0966 402.6532 -59246.3999 -41436.6547 399.8758 -136.4033 -98.4142 235423.8427 -2.0179 -2.0279
ENERGY: 120000 481.2565 1247.5798 560.1455 80.1263 -66314.9501 4860.9761 0.0000 0.0000 17514.9701 -41569.8959 396.9346 -59084.8659 -41516.1649 400.8815 90.5585 130.8603 237064.2475 -6.9697 -6.7760
ENERGY: 160000 471.2170 1317.3148 545.9524 85.8289 -66137.2499 4625.7019 0.0000 0.0000 17686.6608 -41404.5740 400.8256 -59091.2349 -41352.7006 399.7049 -209.3984 -189.3386 235572.4299 12.2306 12.1774
ENERGY: 200000 446.8393 1295.4619 536.7923 79.2971 -66279.1512 4645.6019 0.0000 0.0000 17473.4868 -41801.6720 395.9945 -59275.1588 -41750.1746 398.7813 -129.7973 -86.5597 235897.2954 6.0606 6.2240
