Info: SIMULATION PARAMETERS:
Info: TIMESTEP               2
Info: NUMBER OF STEPS        2000000
Info: STEPS PER CYCLE        10
Info: PERIODIC CELL BASIS 1  55.2689 0 0
Info: PERIODIC CELL BASIS 2  0 57.8115 0
Info: PERIODIC CELL BASIS 3  0 0 64.5138
Info: PERIODIC CELL CENTER   19.4469 2.11497 -11.3022
Info: WRAPPING ALL CLUSTERS AROUND PERIODIC BOUNDARIES ON OUTPUT.
Info: FIRST LDB TIMESTEP     50
Info: LAST LDB TIMESTEP     -1
Info: HOM BACKGROUND SCALING 1
Info: PME BACKGROUND SCALING 1
Info: MIN ATOMS PER PATCH    40
Info: INITIAL TEMPERATURE    400
Info: CENTER OF MASS MOVING INITIALLY? NO
Info: DIELECTRIC             1
Info: EXCLUDE                SCALED ONE-FOUR
Info: 1-4 ELECTROSTATICS SCALED BY 1
Info: MODIFIED 1-4 VDW PARAMETERS WILL BE USED
Info: DCD FILENAME           400k_1_mutata3_4ns.dcd
Info: DCD FREQUENCY          2000
Info: DCD FIRST STEP         2000
Info: DCD FILE WILL CONTAIN UNIT CELL DATA
Info: XST FILENAME           400k_1_mutata3_4ns.xst
Info: XST FREQUENCY          2000
Info: NO VELOCITY DCD OUTPUT
Info: NO FORCE DCD OUTPUT
Info: OUTPUT FILENAME        400k_1_mutata3_4ns
Info: BINARY OUTPUT FILES WILL BE USED
Info: RESTART FILENAME       400k_1_mutata3_4ns.restart
Info: RESTART FREQUENCY      200000
Info: BINARY RESTART FILES WILL BE USED
Info: SWITCHING ACTIVE
Info: SWITCHING ON           10
Info: SWITCHING OFF          12
Info: PAIRLIST DISTANCE      14
Info: PAIRLIST SHRINK RATE   0.01
Info: PAIRLIST GROW RATE     0.01
Info: PAIRLIST TRIGGER       0.3
Info: PAIRLISTS PER CYCLE    2
Info: PAIRLISTS ENABLED
Info: MARGIN                 0.495
Info: HYDROGEN GROUP CUTOFF  2.5
Info: PATCH DIMENSION        16.995
Info: ENERGY OUTPUT STEPS    2000
Info: CROSSTERM ENERGY INCLUDED IN DIHEDRAL
Info: TIMING OUTPUT STEPS    2000
Info: PRESSURE OUTPUT STEPS  2000
Info: LANGEVIN DYNAMICS ACTIVE
Info: LANGEVIN TEMPERATURE   400
Info: LANGEVIN USING BBK INTEGRATOR
Info: LANGEVIN DAMPING COEFFICIENT IS 5 INVERSE PS
Info: LANGEVIN DYNAMICS NOT APPLIED TO HYDROGENS
Info: LANGEVIN PISTON PRESSURE CONTROL ACTIVE
Info:        TARGET PRESSURE IS 1.01325 BAR
Info:     OSCILLATION PERIOD IS 200 FS
Info:             DECAY TIME IS 100 FS
Info:     PISTON TEMPERATURE IS 400 K
Info:       PRESSURE CONTROL IS GROUP-BASED
Info:    INITIAL STRAIN RATE IS 2.85127e-05 2.85127e-05 2.85127e-05
Info:       CELL FLUCTUATION IS ISOTROPIC
Info: PARTICLE MESH EWALD (PME) ACTIVE
Info: PME TOLERANCE               1e-06
Info: PME EWALD COEFFICIENT       0.257952
Info: PME INTERPOLATION ORDER     4
Info: PME GRID DIMENSIONS         56 60 72
Info: PME MAXIMUM GRID SPACING    1
Info: FULL ELECTROSTATIC EVALUATION FREQUENCY      2
Info: USING VERLET I (r-RESPA) MTS SCHEME.
Info: C1 SPLITTING OF LONG RANGE ELECTROSTATICS
Info: PLACING ATOMS IN PATCHES BY HYDROGEN GROUPS
Info: RIGID BONDS TO HYDROGEN : ALL
Info:         ERROR TOLERANCE : 1e-08
Info:          MAX ITERATIONS : 100
Info: RIGID WATER USING SETTLE ALGORITHM
Info: RANDOM NUMBER SEED     234078
Info: USE HYDROGEN BONDS?    NO
Info: COORDINATE PDB         ../../input_mutant_3/2PYP_mutata5_ionized.pdb
Info: STRUCTURE FILE         ../../input_mutant_3/2PYP_mutata5_ionized.psf
Info: PARAMETER file: CHARMM format!
Info: PARAMETERS             ../../input_mutant_3/par_all27_prot_lipid.inp
Info: USING ARITHMETIC MEAN TO COMBINE L-J SIGMA PARAMETERS
Info: BINARY COORDINATES     ../../input_mutant_3/2PYP_mutata5_final.coor
Info: SUMMARY OF PARAMETERS:
Info: 180 BONDS
Info: 447 ANGLES
Info: 566 DIHEDRAL
Info: 46 IMPROPER
Info: 6 CROSSTERM
Info: 119 VDW
Info: 0 VDW_PAIRS
Info: 0 NBTHOLE_PAIRS
Info: STRUCTURE SUMMARY:
Info: 21124 ATOMS
Info: 14751 BONDS
Info: 9928 ANGLES
Info: 5164 DIHEDRALS
Info: 321 IMPROPERS
Info: 121 CROSSTERMS
Info: 0 EXCLUSIONS
Info: 20132 RIGID BONDS
Info: 43240 DEGREES OF FREEDOM
Info: 7385 HYDROGEN GROUPS
Info: 4 ATOMS IN LARGEST HYDROGEN GROUP
Info: 7385 MIGRATION GROUPS
Info: 4 ATOMS IN LARGEST MIGRATION GROUP
Info: TOTAL MASS = 129277 amu
Info: TOTAL CHARGE = 1.72667e-06 e
Info: MASS DENSITY = 1.04144 g/cm^3
Info: ATOM DENSITY = 0.102477 atoms/A^3
Info: ADDED 29760 IMPLICIT EXCLUSIONS
Info: NONBONDED TABLE R-SQUARED SPACING: 0.0625
Info: NONBONDED TABLE SIZE: 769 POINTS
Info: REMOVING COM VELOCITY 0.0122575 0.0061727 0.0729718
Info: Updated CUDA force table with 4096 elements.
Info: Updated CUDA LJ table with 119 x 119 elements.
Info: Found 272 unique exclusion lists needing 836 bytes
ETITLE: TS BOND ANGLE DIHED IMPRP ELECT VDW BOUNDARY MISC KINETIC TOTAL TEMP POTENTIAL TOTAL3 TEMPAVG PRESSURE GPRESSURE VOLUME PRESSAVG GPRESSAVG
ENERGY: 0 379.1721 1043.0013 501.9395 64.7895 -74352.6940 6040.3453 0.0000 0.0000 17247.5676 -49075.8787 401.4510 -66323.4463 -49032.6984 401.4510 533.6500 567.6757 206133.3660 533.6500 567.6757
ENERGY: 400000 517.7840 1331.4900 530.7938 86.7170 -65253.0979 4798.0040 0.0000 0.0000 17036.8382 -40951.4708 396.5461 -57988.3090 -40891.6325 397.4874 307.8872 341.8341 227490.5320 -0.0809 -0.1891
ENERGY: 800000 493.3074 1300.2289 520.6009 83.8521 -65321.5174 4676.3064 0.0000 0.0000 16995.5516 -41251.6701 395.5851 -58247.2217 -41209.4861 396.6491 194.1148 212.8176 227407.9248 4.5326 4.4470
ENERGY: 1200000 493.2665 1367.4352 518.1659 78.1254 -64690.2838 4367.8373 0.0000 0.0000 17094.5928 -40770.8607 397.8904 -57865.4535 -40723.6426 399.0750 -314.4574 -282.8924 230104.1455 9.0873 9.2482
ENERGY: 1600000 545.0147 1323.0771 531.6895 79.2085 -64676.6837 4663.3669 0.0000 0.0000 17114.0086 -40420.3184 398.3423 -57534.3270 -40382.8906 398.5881 -40.2862 -17.7351 232575.5224 -3.6653 -3.5695
ENERGY: 2000000 515.5786 1261.9111 522.9217 85.1102 -64890.0517 4672.2514 0.0000 0.0000 17300.0544 -40532.2243 402.6727 -57832.2787 -40484.7308 398.5578 316.9505 346.4765 229242.6886 -0.3494 -0.3811
