Info: SIMULATION PARAMETERS:
Info: TIMESTEP               2
Info: NUMBER OF STEPS        200000
Info: STEPS PER CYCLE        10
Info: PERIODIC CELL BASIS 1  58.4134 0 0
Info: PERIODIC CELL BASIS 2  0 60.2871 0
Info: PERIODIC CELL BASIS 3  0 0 60.409
Info: PERIODIC CELL CENTER   20.1501 2.35997 -11.2844
Info: WRAPPING ALL CLUSTERS AROUND PERIODIC BOUNDARIES ON OUTPUT.
Info: FIRST LDB TIMESTEP     50
Info: LAST LDB TIMESTEP     -1
Info: HOM BACKGROUND SCALING 1
Info: PME BACKGROUND SCALING 1
Info: MIN ATOMS PER PATCH    40
Info: INITIAL TEMPERATURE    400
Info: CENTER OF MASS MOVING INITIALLY? NO
Info: DIELECTRIC             1
Info: EXCLUDE                SCALED ONE-FOUR
Info: 1-4 ELECTROSTATICS SCALED BY 1
Info: MODIFIED 1-4 VDW PARAMETERS WILL BE USED
Info: DCD FILENAME           400k_5_mutata.dcd
Info: DCD FREQUENCY          2000
Info: DCD FIRST STEP         2000
Info: DCD FILE WILL CONTAIN UNIT CELL DATA
Info: XST FILENAME           400k_5_mutata.xst
Info: XST FREQUENCY          2000
Info: NO VELOCITY DCD OUTPUT
Info: NO FORCE DCD OUTPUT
Info: OUTPUT FILENAME        400k_5_mutata
Info: BINARY OUTPUT FILES WILL BE USED
Info: RESTART FILENAME       400k_5_mutata.restart
Info: RESTART FREQUENCY      100000
Info: BINARY RESTART FILES WILL BE USED
Info: SWITCHING ACTIVE
Info: SWITCHING ON           10
Info: SWITCHING OFF          12
Info: PAIRLIST DISTANCE      14
Info: PAIRLIST SHRINK RATE   0.01
Info: PAIRLIST GROW RATE     0.01
Info: PAIRLIST TRIGGER       0.3
Info: PAIRLISTS PER CYCLE    2
Info: PAIRLISTS ENABLED
Info: MARGIN                 0.495
Info: HYDROGEN GROUP CUTOFF  2.5
Info: PATCH DIMENSION        16.995
Info: ENERGY OUTPUT STEPS    2000
Info: CROSSTERM ENERGY INCLUDED IN DIHEDRAL
Info: TIMING OUTPUT STEPS    2000
Info: PRESSURE OUTPUT STEPS  2000
Info: LANGEVIN DYNAMICS ACTIVE
Info: LANGEVIN TEMPERATURE   400
Info: LANGEVIN USING BBK INTEGRATOR
Info: LANGEVIN DAMPING COEFFICIENT IS 5 INVERSE PS
Info: LANGEVIN DYNAMICS NOT APPLIED TO HYDROGENS
Info: LANGEVIN PISTON PRESSURE CONTROL ACTIVE
Info:        TARGET PRESSURE IS 1.01325 BAR
Info:     OSCILLATION PERIOD IS 200 FS
Info:             DECAY TIME IS 100 FS
Info:     PISTON TEMPERATURE IS 400 K
Info:       PRESSURE CONTROL IS GROUP-BASED
Info:    INITIAL STRAIN RATE IS 4.38763e-05 4.38763e-05 4.38763e-05
Info:       CELL FLUCTUATION IS ISOTROPIC
Info: PARTICLE MESH EWALD (PME) ACTIVE
Info: PME TOLERANCE               1e-06
Info: PME EWALD COEFFICIENT       0.257952
Info: PME INTERPOLATION ORDER     4
Info: PME GRID DIMENSIONS         60 64 64
Info: PME MAXIMUM GRID SPACING    1
Info: FULL ELECTROSTATIC EVALUATION FREQUENCY      2
Info: USING VERLET I (r-RESPA) MTS SCHEME.
Info: C1 SPLITTING OF LONG RANGE ELECTROSTATICS
Info: PLACING ATOMS IN PATCHES BY HYDROGEN GROUPS
Info: RIGID BONDS TO HYDROGEN : ALL
Info:         ERROR TOLERANCE : 1e-08
Info:          MAX ITERATIONS : 100
Info: RIGID WATER USING SETTLE ALGORITHM
Info: RANDOM NUMBER SEED     54321
Info: USE HYDROGEN BONDS?    NO
Info: COORDINATE PDB         ../../input_mutant_1/2PYP_mutata1_ionized.pdb
Info: STRUCTURE FILE         ../../input_mutant_1/2PYP_mutata1_ionized.psf
Info: PARAMETER file: CHARMM format!
Info: PARAMETERS             ../../input_mutant_1/par_all27_prot_lipid.inp
Info: USING ARITHMETIC MEAN TO COMBINE L-J SIGMA PARAMETERS
Info: BINARY COORDINATES     ../../input_mutant_1/2PYP_mutata1_final.coor
Info: SUMMARY OF PARAMETERS:
Info: 180 BONDS
Info: 447 ANGLES
Info: 566 DIHEDRAL
Info: 46 IMPROPER
Info: 6 CROSSTERM
Info: 119 VDW
Info: 0 VDW_PAIRS
Info: 0 NBTHOLE_PAIRS
Info: STRUCTURE SUMMARY:
Info: 21801 ATOMS
Info: 15220 BONDS
Info: 10230 ANGLES
Info: 5308 DIHEDRALS
Info: 323 IMPROPERS
Info: 121 CROSSTERMS
Info: 0 EXCLUSIONS
Info: 20790 RIGID BONDS
Info: 44613 DEGREES OF FREEDOM
Info: 7613 HYDROGEN GROUPS
Info: 4 ATOMS IN LARGEST HYDROGEN GROUP
Info: 7613 MIGRATION GROUPS
Info: 4 ATOMS IN LARGEST MIGRATION GROUP
Info: TOTAL MASS = 133337 amu
Info: TOTAL CHARGE = 1.7453e-06 e
Info: MASS DENSITY = 1.04081 g/cm^3
Info: ATOM DENSITY = 0.10248 atoms/A^3
Info: ADDED 30670 IMPLICIT EXCLUSIONS
Info: NONBONDED TABLE R-SQUARED SPACING: 0.0625
Info: NONBONDED TABLE SIZE: 769 POINTS
Info: REMOVING COM VELOCITY -0.10026 -0.0336249 0.0132535
Info: Updated CUDA force table with 4096 elements.
Info: Updated CUDA LJ table with 119 x 119 elements.
Info: Found 271 unique exclusion lists needing 840 bytes
ETITLE: TS BOND ANGLE DIHED IMPRP ELECT VDW BOUNDARY MISC KINETIC TOTAL TEMP POTENTIAL TOTAL3 TEMPAVG PRESSURE GPRESSURE VOLUME PRESSAVG GPRESSAVG
ENERGY: 0 382.7391 1050.9087 501.0889 61.6262 -77382.6418 6271.0631 0.0000 0.0000 17604.0779 -51511.1379 397.1387 -69115.2158 -51468.1402 397.1387 520.1802 552.2636 212734.8654 520.1802 552.2636
ENERGY: 40000 530.6361 1359.8812 570.1864 90.3279 -67280.0871 4624.5271 0.0000 0.0000 17629.6449 -42474.8835 397.7155 -60104.5284 -42412.2664 400.4494 73.8409 115.7692 236152.4978 1.8441 1.9897
ENERGY: 80000 498.1722 1407.7341 591.8638 100.5327 -67467.3358 4554.3784 0.0000 0.0000 17656.0179 -42658.6367 398.3105 -60314.6546 -42608.7964 399.1718 -42.6770 -15.6209 235835.0395 8.6090 8.6847
ENERGY: 120000 507.8205 1311.8587 581.9994 78.7317 -67336.2562 4661.5745 0.0000 0.0000 17834.3525 -42359.9190 402.3336 -60194.2715 -42308.4433 398.8585 -216.8121 -193.5216 237445.9452 1.0355 1.2563
ENERGY: 160000 532.5605 1384.9373 568.2483 77.9182 -67696.4983 4884.5289 0.0000 0.0000 17781.3028 -42467.0023 401.1368 -60248.3051 -42417.4479 399.6623 133.9433 159.7553 235108.8901 6.5513 6.5178
ENERGY: 200000 494.6595 1338.6176 593.3116 90.4437 -67334.0259 4735.2951 0.0000 0.0000 17556.0426 -42525.6558 396.0551 -60081.6984 -42480.1891 399.0414 124.7355 156.8868 236630.7331 2.3791 2.3476
