Info: SIMULATION PARAMETERS:
Info: TIMESTEP               2
Info: NUMBER OF STEPS        200000
Info: STEPS PER CYCLE        10
Info: PERIODIC CELL BASIS 1  57.1156 0 0
Info: PERIODIC CELL BASIS 2  0 59.7148 0
Info: PERIODIC CELL BASIS 3  0 0 60.1826
Info: PERIODIC CELL CENTER   19.531 1.9405 -11.2175
Info: WRAPPING ALL CLUSTERS AROUND PERIODIC BOUNDARIES ON OUTPUT.
Info: FIRST LDB TIMESTEP     50
Info: LAST LDB TIMESTEP     -1
Info: HOM BACKGROUND SCALING 1
Info: PME BACKGROUND SCALING 1
Info: MIN ATOMS PER PATCH    40
Info: INITIAL TEMPERATURE    400
Info: CENTER OF MASS MOVING INITIALLY? NO
Info: DIELECTRIC             1
Info: EXCLUDE                SCALED ONE-FOUR
Info: 1-4 ELECTROSTATICS SCALED BY 1
Info: MODIFIED 1-4 VDW PARAMETERS WILL BE USED
Info: DCD FILENAME           400k_3_mutata5_400ps.dcd
Info: DCD FREQUENCY          2000
Info: DCD FIRST STEP         2000
Info: DCD FILE WILL CONTAIN UNIT CELL DATA
Info: XST FILENAME           400k_3_mutata5_400ps.xst
Info: XST FREQUENCY          2000
Info: NO VELOCITY DCD OUTPUT
Info: NO FORCE DCD OUTPUT
Info: OUTPUT FILENAME        400k_3_mutata5_400ps
Info: BINARY OUTPUT FILES WILL BE USED
Info: RESTART FILENAME       400k_3_mutata5_400ps.restart
Info: RESTART FREQUENCY      200000
Info: BINARY RESTART FILES WILL BE USED
Info: SWITCHING ACTIVE
Info: SWITCHING ON           10
Info: SWITCHING OFF          12
Info: PAIRLIST DISTANCE      14
Info: PAIRLIST SHRINK RATE   0.01
Info: PAIRLIST GROW RATE     0.01
Info: PAIRLIST TRIGGER       0.3
Info: PAIRLISTS PER CYCLE    2
Info: PAIRLISTS ENABLED
Info: MARGIN                 0.495
Info: HYDROGEN GROUP CUTOFF  2.5
Info: PATCH DIMENSION        16.995
Info: ENERGY OUTPUT STEPS    2000
Info: CROSSTERM ENERGY INCLUDED IN DIHEDRAL
Info: TIMING OUTPUT STEPS    2000
Info: PRESSURE OUTPUT STEPS  2000
Info: LANGEVIN DYNAMICS ACTIVE
Info: LANGEVIN TEMPERATURE   400
Info: LANGEVIN USING BBK INTEGRATOR
Info: LANGEVIN DAMPING COEFFICIENT IS 5 INVERSE PS
Info: LANGEVIN DYNAMICS NOT APPLIED TO HYDROGENS
Info: LANGEVIN PISTON PRESSURE CONTROL ACTIVE
Info:        TARGET PRESSURE IS 1.01325 BAR
Info:     OSCILLATION PERIOD IS 200 FS
Info:             DECAY TIME IS 100 FS
Info:     PISTON TEMPERATURE IS 400 K
Info:       PRESSURE CONTROL IS GROUP-BASED
Info:    INITIAL STRAIN RATE IS -6.23963e-05 -6.23963e-05 -6.23963e-05
Info:       CELL FLUCTUATION IS ISOTROPIC
Info: PARTICLE MESH EWALD (PME) ACTIVE
Info: PME TOLERANCE               1e-06
Info: PME EWALD COEFFICIENT       0.257952
Info: PME INTERPOLATION ORDER     4
Info: PME GRID DIMENSIONS         60 60 64
Info: PME MAXIMUM GRID SPACING    1
Info: FULL ELECTROSTATIC EVALUATION FREQUENCY      2
Info: USING VERLET I (r-RESPA) MTS SCHEME.
Info: C1 SPLITTING OF LONG RANGE ELECTROSTATICS
Info: PLACING ATOMS IN PATCHES BY HYDROGEN GROUPS
Info: RIGID BONDS TO HYDROGEN : ALL
Info:         ERROR TOLERANCE : 1e-08
Info:          MAX ITERATIONS : 100
Info: RIGID WATER USING SETTLE ALGORITHM
Info: RANDOM NUMBER SEED     548230985
Info: USE HYDROGEN BONDS?    NO
Info: COORDINATE PDB         ../../input_mutant_5/2PYP_mutata_ionized.pdb
Info: STRUCTURE FILE         ../../input_mutant_5/2PYP_mutata_ionized.psf
Info: PARAMETER file: CHARMM format!
Info: PARAMETERS             ../../input_mutant_5/par_all27_prot_lipid.inp
Info: USING ARITHMETIC MEAN TO COMBINE L-J SIGMA PARAMETERS
Info: BINARY COORDINATES     ../../input_mutant_5/2PYP_mutata_final.coor
Info: SUMMARY OF PARAMETERS:
Info: 180 BONDS
Info: 447 ANGLES
Info: 566 DIHEDRAL
Info: 46 IMPROPER
Info: 6 CROSSTERM
Info: 119 VDW
Info: 0 VDW_PAIRS
Info: 0 NBTHOLE_PAIRS
Info: STRUCTURE SUMMARY:
Info: 21051 ATOMS
Info: 14696 BONDS
Info: 9884 ANGLES
Info: 5127 DIHEDRALS
Info: 324 IMPROPERS
Info: 121 CROSSTERMS
Info: 0 EXCLUSIONS
Info: 20065 RIGID BONDS
Info: 43088 DEGREES OF FREEDOM
Info: 7359 HYDROGEN GROUPS
Info: 4 ATOMS IN LARGEST HYDROGEN GROUP
Info: 7359 MIGRATION GROUPS
Info: 4 ATOMS IN LARGEST MIGRATION GROUP
Info: TOTAL MASS = 128849 amu
Info: TOTAL CHARGE = 1.71177e-06 e
Info: MASS DENSITY = 1.04239 g/cm^3
Info: ATOM DENSITY = 0.102557 atoms/A^3
Info: ADDED 29627 IMPLICIT EXCLUSIONS
Info: NONBONDED TABLE R-SQUARED SPACING: 0.0625
Info: NONBONDED TABLE SIZE: 769 POINTS
Info: REMOVING COM VELOCITY -0.0139953 0.000854669 0.012747
Info: Updated CUDA force table with 4096 elements.
Info: Updated CUDA LJ table with 119 x 119 elements.
Info: Found 272 unique exclusion lists needing 828 bytes
ETITLE: TS BOND ANGLE DIHED IMPRP ELECT VDW BOUNDARY MISC KINETIC TOTAL TEMP POTENTIAL TOTAL3 TEMPAVG PRESSURE GPRESSURE VOLUME PRESSAVG GPRESSAVG
ENERGY: 0 378.2715 1030.1903 460.7188 71.8779 -74458.5401 6253.0937 0.0000 0.0000 17299.9438 -48964.4442 404.0906 -66264.3880 -48922.1167 404.0906 879.8548 910.3761 205261.6048 879.8548 910.3761
ENERGY: 40000 445.4550 1308.7385 528.7368 75.0803 -64490.1130 4606.9593 0.0000 0.0000 16939.6641 -40585.4788 395.6752 -57525.1429 -40531.5451 399.6677 500.5779 527.5392 229003.7323 -6.2986 -6.5405
ENERGY: 80000 455.7226 1311.6664 572.2265 91.2020 -64669.0637 4500.1210 0.0000 0.0000 16889.7014 -40848.4237 394.5082 -57738.1252 -40808.9982 398.2728 -172.2318 -138.1913 229157.2468 6.1024 6.4889
ENERGY: 120000 510.0511 1306.8094 563.3246 81.7278 -64087.7297 4296.4146 0.0000 0.0000 16950.3918 -40379.0104 395.9258 -57329.4023 -40326.8103 401.2503 -32.2463 -15.1466 227833.5056 -1.7771 -1.8393
ENERGY: 160000 501.3732 1280.7125 557.2580 89.7425 -64770.7383 4661.1541 0.0000 0.0000 17153.5985 -40526.8996 400.6723 -57680.4980 -40472.0188 399.1409 110.4232 134.1223 227918.4071 -0.0578 -0.1070
ENERGY: 200000 462.2755 1318.5649 578.7352 89.7769 -64488.8665 4379.8190 0.0000 0.0000 17142.3388 -40517.3561 400.4093 -57659.6949 -40455.4404 398.9454 73.9419 94.8230 225788.9770 4.4346 4.4226
