Info: SIMULATION PARAMETERS:
Info: TIMESTEP               2
Info: NUMBER OF STEPS        200000
Info: STEPS PER CYCLE        10
Info: PERIODIC CELL BASIS 1  59.1391 0 0
Info: PERIODIC CELL BASIS 2  0 63.1519 0
Info: PERIODIC CELL BASIS 3  0 0 60.2599
Info: PERIODIC CELL CENTER   18.4185 3.7149 -11.2402
Info: WRAPPING ALL CLUSTERS AROUND PERIODIC BOUNDARIES ON OUTPUT.
Info: FIRST LDB TIMESTEP     50
Info: LAST LDB TIMESTEP     -1
Info: HOM BACKGROUND SCALING 1
Info: PME BACKGROUND SCALING 1
Info: MIN ATOMS PER PATCH    40
Info: INITIAL TEMPERATURE    450
Info: CENTER OF MASS MOVING INITIALLY? NO
Info: DIELECTRIC             1
Info: EXCLUDE                SCALED ONE-FOUR
Info: 1-4 ELECTROSTATICS SCALED BY 1
Info: MODIFIED 1-4 VDW PARAMETERS WILL BE USED
Info: DCD FILENAME           450k_7_mutata2.dcd
Info: DCD FREQUENCY          2000
Info: DCD FIRST STEP         2000
Info: DCD FILE WILL CONTAIN UNIT CELL DATA
Info: XST FILENAME           450k_7_mutata2.xst
Info: XST FREQUENCY          2000
Info: NO VELOCITY DCD OUTPUT
Info: NO FORCE DCD OUTPUT
Info: OUTPUT FILENAME        450k_7_mutata2
Info: BINARY OUTPUT FILES WILL BE USED
Info: RESTART FILENAME       450k_7_mutata2.restart
Info: RESTART FREQUENCY      100000
Info: BINARY RESTART FILES WILL BE USED
Info: SWITCHING ACTIVE
Info: SWITCHING ON           10
Info: SWITCHING OFF          12
Info: PAIRLIST DISTANCE      14
Info: PAIRLIST SHRINK RATE   0.01
Info: PAIRLIST GROW RATE     0.01
Info: PAIRLIST TRIGGER       0.3
Info: PAIRLISTS PER CYCLE    2
Info: PAIRLISTS ENABLED
Info: MARGIN                 0.495
Info: HYDROGEN GROUP CUTOFF  2.5
Info: PATCH DIMENSION        16.995
Info: ENERGY OUTPUT STEPS    2000
Info: CROSSTERM ENERGY INCLUDED IN DIHEDRAL
Info: TIMING OUTPUT STEPS    2000
Info: PRESSURE OUTPUT STEPS  2000
Info: LANGEVIN DYNAMICS ACTIVE
Info: LANGEVIN TEMPERATURE   450
Info: LANGEVIN USING BBK INTEGRATOR
Info: LANGEVIN DAMPING COEFFICIENT IS 5 INVERSE PS
Info: LANGEVIN DYNAMICS NOT APPLIED TO HYDROGENS
Info: LANGEVIN PISTON PRESSURE CONTROL ACTIVE
Info:        TARGET PRESSURE IS 1.01325 BAR
Info:     OSCILLATION PERIOD IS 200 FS
Info:             DECAY TIME IS 100 FS
Info:     PISTON TEMPERATURE IS 450 K
Info:       PRESSURE CONTROL IS GROUP-BASED
Info:    INITIAL STRAIN RATE IS -1.92523e-05 -1.92523e-05 -1.92523e-05
Info:       CELL FLUCTUATION IS ISOTROPIC
Info: PARTICLE MESH EWALD (PME) ACTIVE
Info: PME TOLERANCE               1e-06
Info: PME EWALD COEFFICIENT       0.257952
Info: PME INTERPOLATION ORDER     4
Info: PME GRID DIMENSIONS         60 64 64
Info: PME MAXIMUM GRID SPACING    1
Info: FULL ELECTROSTATIC EVALUATION FREQUENCY      2
Info: USING VERLET I (r-RESPA) MTS SCHEME.
Info: C1 SPLITTING OF LONG RANGE ELECTROSTATICS
Info: PLACING ATOMS IN PATCHES BY HYDROGEN GROUPS
Info: RIGID BONDS TO HYDROGEN : ALL
Info:         ERROR TOLERANCE : 1e-08
Info:          MAX ITERATIONS : 100
Info: RIGID WATER USING SETTLE ALGORITHM
Info: RANDOM NUMBER SEED     111
Info: USE HYDROGEN BONDS?    NO
Info: COORDINATE PDB         ../../input_mutant_2/2PYP_mutata2_ionized.pdb
Info: STRUCTURE FILE         ../../input_mutant_2/2PYP_mutata2_ionized.psf
Info: PARAMETER file: CHARMM format!
Info: PARAMETERS             ../../input_mutant_2/par_all27_prot_lipid.inp
Info: USING ARITHMETIC MEAN TO COMBINE L-J SIGMA PARAMETERS
Info: BINARY COORDINATES     ../../input_mutant_2/2PYP_mutata2_final.coor
Info: SUMMARY OF PARAMETERS:
Info: 180 BONDS
Info: 447 ANGLES
Info: 566 DIHEDRAL
Info: 46 IMPROPER
Info: 6 CROSSTERM
Info: 119 VDW
Info: 0 VDW_PAIRS
Info: 0 NBTHOLE_PAIRS
Info: STRUCTURE SUMMARY:
Info: 23087 ATOMS
Info: 16069 BONDS
Info: 10621 ANGLES
Info: 5232 DIHEDRALS
Info: 327 IMPROPERS
Info: 121 CROSSTERMS
Info: 0 EXCLUSIONS
Info: 22087 RIGID BONDS
Info: 47174 DEGREES OF FREEDOM
Info: 8039 HYDROGEN GROUPS
Info: 4 ATOMS IN LARGEST HYDROGEN GROUP
Info: 8039 MIGRATION GROUPS
Info: 4 ATOMS IN LARGEST MIGRATION GROUP
Info: TOTAL MASS = 141020 amu
Info: TOTAL CHARGE = 1.76765e-06 e
Info: MASS DENSITY = 1.04052 g/cm^3
Info: ATOM DENSITY = 0.102584 atoms/A^3
Info: ADDED 31842 IMPLICIT EXCLUSIONS
Info: NONBONDED TABLE R-SQUARED SPACING: 0.0625
Info: NONBONDED TABLE SIZE: 769 POINTS
Info: REMOVING COM VELOCITY -0.0488476 0.0996626 -0.00186277
Info: Updated CUDA force table with 4096 elements.
Info: Updated CUDA LJ table with 119 x 119 elements.
Info: Found 272 unique exclusion lists needing 848 bytes
ETITLE: TS BOND ANGLE DIHED IMPRP ELECT VDW BOUNDARY MISC KINETIC TOTAL TEMP POTENTIAL TOTAL3 TEMPAVG PRESSURE GPRESSURE VOLUME PRESSAVG GPRESSAVG
ENERGY: 0 413.0961 1063.3539 518.0864 65.8009 -81940.8067 6741.5240 0.0000 0.0000 20908.7479 -52230.1976 446.0830 -73138.9455 -52182.7825 446.0830 1018.5123 1049.7086 225055.5131 1018.5123 1049.7086
ENERGY: 40000 579.2789 1467.3290 598.4705 93.5676 -65934.7047 4500.4285 0.0000 0.0000 21065.8550 -37629.7753 449.4349 -58695.6302 -37570.9272 449.8985 267.9889 292.4992 271601.4372 1.2371 1.3193
ENERGY: 80000 528.9810 1452.0210 552.7180 93.3168 -65848.9872 4385.3551 0.0000 0.0000 21314.4338 -37522.1615 454.7382 -58836.5952 -37444.7136 450.8291 -2.9310 28.8003 271642.6909 12.5414 12.4658
ENERGY: 120000 542.4296 1476.6191 603.6921 97.8688 -65577.6751 3999.9972 0.0000 0.0000 21065.2772 -37791.7910 449.4225 -58857.0682 -37737.7988 448.1371 -409.9701 -378.4797 270889.1067 3.3222 3.3824
ENERGY: 160000 553.7346 1476.3716 581.1346 100.2273 -66005.7494 4193.5048 0.0000 0.0000 21037.9009 -38062.8756 448.8385 -59100.7765 -37997.3261 448.8981 -278.9215 -256.3592 269803.6640 1.1679 1.1172
ENERGY: 200000 571.0861 1434.9776 598.8215 100.8981 -66051.5015 4478.2473 0.0000 0.0000 21052.2385 -37815.2323 449.1444 -58867.4708 -37758.8547 448.8174 176.9379 195.2603 269331.6976 -2.2868 -2.2415
