Info: SIMULATION PARAMETERS:
Info: TIMESTEP               2
Info: NUMBER OF STEPS        2000000
Info: STEPS PER CYCLE        10
Info: PERIODIC CELL BASIS 1  57.1156 0 0
Info: PERIODIC CELL BASIS 2  0 59.7148 0
Info: PERIODIC CELL BASIS 3  0 0 60.1826
Info: PERIODIC CELL CENTER   19.531 1.9405 -11.2175
Info: WRAPPING ALL CLUSTERS AROUND PERIODIC BOUNDARIES ON OUTPUT.
Info: FIRST LDB TIMESTEP     50
Info: LAST LDB TIMESTEP     -1
Info: HOM BACKGROUND SCALING 1
Info: PME BACKGROUND SCALING 1
Info: MIN ATOMS PER PATCH    40
Info: INITIAL TEMPERATURE    500
Info: CENTER OF MASS MOVING INITIALLY? NO
Info: DIELECTRIC             1
Info: EXCLUDE                SCALED ONE-FOUR
Info: 1-4 ELECTROSTATICS SCALED BY 1
Info: MODIFIED 1-4 VDW PARAMETERS WILL BE USED
Info: DCD FILENAME           500k_2_mutata5_4ns.dcd
Info: DCD FREQUENCY          2000
Info: DCD FIRST STEP         2000
Info: DCD FILE WILL CONTAIN UNIT CELL DATA
Info: XST FILENAME           500k_2_mutata5_4ns.xst
Info: XST FREQUENCY          2000
Info: NO VELOCITY DCD OUTPUT
Info: NO FORCE DCD OUTPUT
Info: OUTPUT FILENAME        500k_2_mutata5_4ns
Info: BINARY OUTPUT FILES WILL BE USED
Info: RESTART FILENAME       500k_2_mutata5_4ns.restart
Info: RESTART FREQUENCY      200000
Info: BINARY RESTART FILES WILL BE USED
Info: SWITCHING ACTIVE
Info: SWITCHING ON           10
Info: SWITCHING OFF          12
Info: PAIRLIST DISTANCE      14
Info: PAIRLIST SHRINK RATE   0.01
Info: PAIRLIST GROW RATE     0.01
Info: PAIRLIST TRIGGER       0.3
Info: PAIRLISTS PER CYCLE    2
Info: PAIRLISTS ENABLED
Info: MARGIN                 0.495
Info: HYDROGEN GROUP CUTOFF  2.5
Info: PATCH DIMENSION        16.995
Info: ENERGY OUTPUT STEPS    2000
Info: CROSSTERM ENERGY INCLUDED IN DIHEDRAL
Info: TIMING OUTPUT STEPS    2000
Info: PRESSURE OUTPUT STEPS  2000
Info: LANGEVIN DYNAMICS ACTIVE
Info: LANGEVIN TEMPERATURE   500
Info: LANGEVIN USING BBK INTEGRATOR
Info: LANGEVIN DAMPING COEFFICIENT IS 5 INVERSE PS
Info: LANGEVIN DYNAMICS NOT APPLIED TO HYDROGENS
Info: LANGEVIN PISTON PRESSURE CONTROL ACTIVE
Info:        TARGET PRESSURE IS 1.01325 BAR
Info:     OSCILLATION PERIOD IS 200 FS
Info:             DECAY TIME IS 100 FS
Info:     PISTON TEMPERATURE IS 500 K
Info:       PRESSURE CONTROL IS GROUP-BASED
Info:    INITIAL STRAIN RATE IS -6.23963e-05 -6.23963e-05 -6.23963e-05
Info:       CELL FLUCTUATION IS ISOTROPIC
Info: PARTICLE MESH EWALD (PME) ACTIVE
Info: PME TOLERANCE               1e-06
Info: PME EWALD COEFFICIENT       0.257952
Info: PME INTERPOLATION ORDER     4
Info: PME GRID DIMENSIONS         60 60 64
Info: PME MAXIMUM GRID SPACING    1
Info: FULL ELECTROSTATIC EVALUATION FREQUENCY      2
Info: USING VERLET I (r-RESPA) MTS SCHEME.
Info: C1 SPLITTING OF LONG RANGE ELECTROSTATICS
Info: PLACING ATOMS IN PATCHES BY HYDROGEN GROUPS
Info: RIGID BONDS TO HYDROGEN : ALL
Info:         ERROR TOLERANCE : 1e-08
Info:          MAX ITERATIONS : 100
Info: RIGID WATER USING SETTLE ALGORITHM
Info: RANDOM NUMBER SEED     9087234
Info: USE HYDROGEN BONDS?    NO
Info: COORDINATE PDB         ../../input_mutant_5/2PYP_mutata_ionized.pdb
Info: STRUCTURE FILE         ../../input_mutant_5/2PYP_mutata_ionized.psf
Info: PARAMETER file: CHARMM format!
Info: PARAMETERS             ../../input_mutant_5/par_all27_prot_lipid.inp
Info: USING ARITHMETIC MEAN TO COMBINE L-J SIGMA PARAMETERS
Info: BINARY COORDINATES     ../../input_mutant_5/2PYP_mutata_final.coor
Info: SUMMARY OF PARAMETERS:
Info: 180 BONDS
Info: 447 ANGLES
Info: 566 DIHEDRAL
Info: 46 IMPROPER
Info: 6 CROSSTERM
Info: 119 VDW
Info: 0 VDW_PAIRS
Info: 0 NBTHOLE_PAIRS
Info: STRUCTURE SUMMARY:
Info: 21051 ATOMS
Info: 14696 BONDS
Info: 9884 ANGLES
Info: 5127 DIHEDRALS
Info: 324 IMPROPERS
Info: 121 CROSSTERMS
Info: 0 EXCLUSIONS
Info: 20065 RIGID BONDS
Info: 43088 DEGREES OF FREEDOM
Info: 7359 HYDROGEN GROUPS
Info: 4 ATOMS IN LARGEST HYDROGEN GROUP
Info: 7359 MIGRATION GROUPS
Info: 4 ATOMS IN LARGEST MIGRATION GROUP
Info: TOTAL MASS = 128849 amu
Info: TOTAL CHARGE = 1.71177e-06 e
Info: MASS DENSITY = 1.04239 g/cm^3
Info: ATOM DENSITY = 0.102557 atoms/A^3
Info: ADDED 29627 IMPLICIT EXCLUSIONS
Info: NONBONDED TABLE R-SQUARED SPACING: 0.0625
Info: NONBONDED TABLE SIZE: 769 POINTS
Info: REMOVING COM VELOCITY -0.00324808 0.0454056 0.0479594
Info: Updated CUDA force table with 4096 elements.
Info: Updated CUDA LJ table with 119 x 119 elements.
Info: Found 272 unique exclusion lists needing 828 bytes
ETITLE: TS BOND ANGLE DIHED IMPRP ELECT VDW BOUNDARY MISC KINETIC TOTAL TEMP POTENTIAL TOTAL3 TEMPAVG PRESSURE GPRESSURE VOLUME PRESSAVG GPRESSAVG
ENERGY: 0 378.2715 1030.1903 460.7188 71.8779 -74458.5401 6253.0937 0.0000 0.0000 21426.1921 -44838.1960 500.4711 -66264.3880 -44793.5746 500.4711 1342.3550 1372.5056 205261.6048 1342.3550 1372.5056
ENERGY: 400000 596.1320 1553.2870 649.7074 100.9702 -54205.3094 3205.4135 0.0000 0.0000 21544.8002 -26554.9991 503.2416 -48099.7993 -26496.8697 501.2935 -233.7953 -218.7073 276476.5361 -5.9510 -6.1257
ENERGY: 800000 602.3527 1551.6178 585.6023 107.7927 -53993.3463 3370.6221 0.0000 0.0000 21209.3481 -26566.0106 495.4061 -47775.3588 -26518.3000 497.2788 -219.3269 -205.0745 279792.0435 -3.4899 -3.4902
ENERGY: 1200000 561.3121 1524.0292 623.6190 112.8600 -54051.2293 3387.0750 0.0000 0.0000 21243.9649 -26598.3691 496.2147 -47842.3340 -26534.0970 498.9917 205.1899 226.6515 277887.1979 -8.4024 -8.4725
ENERGY: 1600000 621.7713 1574.5075 647.2431 114.1744 -54667.4345 3410.3079 0.0000 0.0000 21393.5481 -26905.8822 499.7086 -48299.4303 -26838.1143 498.8171 -132.1980 -108.6142 274116.8421 -2.4403 -2.5498
ENERGY: 2000000 563.6113 1569.4634 614.1437 114.2969 -54514.5895 3495.8179 0.0000 0.0000 21460.2555 -26697.0009 501.2668 -48157.2564 -26644.0414 499.9227 134.1402 157.4926 274000.6298 -1.1717 -0.8878
