Info: SIMULATION PARAMETERS:
Info: TIMESTEP               2
Info: NUMBER OF STEPS        2000000
Info: STEPS PER CYCLE        10
Info: PERIODIC CELL BASIS 1  57.1156 0 0
Info: PERIODIC CELL BASIS 2  0 59.7148 0
Info: PERIODIC CELL BASIS 3  0 0 60.1826
Info: PERIODIC CELL CENTER   19.531 1.9405 -11.2175
Info: WRAPPING ALL CLUSTERS AROUND PERIODIC BOUNDARIES ON OUTPUT.
Info: FIRST LDB TIMESTEP     50
Info: LAST LDB TIMESTEP     -1
Info: HOM BACKGROUND SCALING 1
Info: PME BACKGROUND SCALING 1
Info: MIN ATOMS PER PATCH    40
Info: INITIAL TEMPERATURE    400
Info: CENTER OF MASS MOVING INITIALLY? NO
Info: DIELECTRIC             1
Info: EXCLUDE                SCALED ONE-FOUR
Info: 1-4 ELECTROSTATICS SCALED BY 1
Info: MODIFIED 1-4 VDW PARAMETERS WILL BE USED
Info: DCD FILENAME           400k_4_mutata5_4ns.dcd
Info: DCD FREQUENCY          2000
Info: DCD FIRST STEP         2000
Info: DCD FILE WILL CONTAIN UNIT CELL DATA
Info: XST FILENAME           400k_4_mutata5_4ns.xst
Info: XST FREQUENCY          2000
Info: NO VELOCITY DCD OUTPUT
Info: NO FORCE DCD OUTPUT
Info: OUTPUT FILENAME        400k_4_mutata5_4ns
Info: BINARY OUTPUT FILES WILL BE USED
Info: RESTART FILENAME       400k_4_mutata5_4ns.restart
Info: RESTART FREQUENCY      200000
Info: BINARY RESTART FILES WILL BE USED
Info: SWITCHING ACTIVE
Info: SWITCHING ON           10
Info: SWITCHING OFF          12
Info: PAIRLIST DISTANCE      14
Info: PAIRLIST SHRINK RATE   0.01
Info: PAIRLIST GROW RATE     0.01
Info: PAIRLIST TRIGGER       0.3
Info: PAIRLISTS PER CYCLE    2
Info: PAIRLISTS ENABLED
Info: MARGIN                 0.495
Info: HYDROGEN GROUP CUTOFF  2.5
Info: PATCH DIMENSION        16.995
Info: ENERGY OUTPUT STEPS    2000
Info: CROSSTERM ENERGY INCLUDED IN DIHEDRAL
Info: TIMING OUTPUT STEPS    2000
Info: PRESSURE OUTPUT STEPS  2000
Info: LANGEVIN DYNAMICS ACTIVE
Info: LANGEVIN TEMPERATURE   400
Info: LANGEVIN USING BBK INTEGRATOR
Info: LANGEVIN DAMPING COEFFICIENT IS 5 INVERSE PS
Info: LANGEVIN DYNAMICS NOT APPLIED TO HYDROGENS
Info: LANGEVIN PISTON PRESSURE CONTROL ACTIVE
Info:        TARGET PRESSURE IS 1.01325 BAR
Info:     OSCILLATION PERIOD IS 200 FS
Info:             DECAY TIME IS 100 FS
Info:     PISTON TEMPERATURE IS 400 K
Info:       PRESSURE CONTROL IS GROUP-BASED
Info:    INITIAL STRAIN RATE IS -6.23963e-05 -6.23963e-05 -6.23963e-05
Info:       CELL FLUCTUATION IS ISOTROPIC
Info: PARTICLE MESH EWALD (PME) ACTIVE
Info: PME TOLERANCE               1e-06
Info: PME EWALD COEFFICIENT       0.257952
Info: PME INTERPOLATION ORDER     4
Info: PME GRID DIMENSIONS         60 60 64
Info: PME MAXIMUM GRID SPACING    1
Info: FULL ELECTROSTATIC EVALUATION FREQUENCY      2
Info: USING VERLET I (r-RESPA) MTS SCHEME.
Info: C1 SPLITTING OF LONG RANGE ELECTROSTATICS
Info: PLACING ATOMS IN PATCHES BY HYDROGEN GROUPS
Info: RIGID BONDS TO HYDROGEN : ALL
Info:         ERROR TOLERANCE : 1e-08
Info:          MAX ITERATIONS : 100
Info: RIGID WATER USING SETTLE ALGORITHM
Info: RANDOM NUMBER SEED     98612491
Info: USE HYDROGEN BONDS?    NO
Info: COORDINATE PDB         ../../input_mutant_5/2PYP_mutata_ionized.pdb
Info: STRUCTURE FILE         ../../input_mutant_5/2PYP_mutata_ionized.psf
Info: PARAMETER file: CHARMM format!
Info: PARAMETERS             ../../input_mutant_5/par_all27_prot_lipid.inp
Info: USING ARITHMETIC MEAN TO COMBINE L-J SIGMA PARAMETERS
Info: BINARY COORDINATES     ../../input_mutant_5/2PYP_mutata_final.coor
Info: SUMMARY OF PARAMETERS:
Info: 180 BONDS
Info: 447 ANGLES
Info: 566 DIHEDRAL
Info: 46 IMPROPER
Info: 6 CROSSTERM
Info: 119 VDW
Info: 0 VDW_PAIRS
Info: 0 NBTHOLE_PAIRS
Info: STRUCTURE SUMMARY:
Info: 21051 ATOMS
Info: 14696 BONDS
Info: 9884 ANGLES
Info: 5127 DIHEDRALS
Info: 324 IMPROPERS
Info: 121 CROSSTERMS
Info: 0 EXCLUSIONS
Info: 20065 RIGID BONDS
Info: 43088 DEGREES OF FREEDOM
Info: 7359 HYDROGEN GROUPS
Info: 4 ATOMS IN LARGEST HYDROGEN GROUP
Info: 7359 MIGRATION GROUPS
Info: 4 ATOMS IN LARGEST MIGRATION GROUP
Info: TOTAL MASS = 128849 amu
Info: TOTAL CHARGE = 1.71177e-06 e
Info: MASS DENSITY = 1.04239 g/cm^3
Info: ATOM DENSITY = 0.102557 atoms/A^3
Info: ADDED 29627 IMPLICIT EXCLUSIONS
Info: NONBONDED TABLE R-SQUARED SPACING: 0.0625
Info: NONBONDED TABLE SIZE: 769 POINTS
Info: REMOVING COM VELOCITY 0.0297943 -0.0495585 0.0472847
Info: Updated CUDA force table with 4096 elements.
Info: Updated CUDA LJ table with 119 x 119 elements.
Info: Found 272 unique exclusion lists needing 828 bytes
ETITLE: TS BOND ANGLE DIHED IMPRP ELECT VDW BOUNDARY MISC KINETIC TOTAL TEMP POTENTIAL TOTAL3 TEMPAVG PRESSURE GPRESSURE VOLUME PRESSAVG GPRESSAVG
ENERGY: 0 378.2715 1030.1903 460.7188 71.8779 -74458.5401 6253.0937 0.0000 0.0000 17203.7133 -49060.6748 401.8428 -66264.3881 -49018.2724 401.8428 846.9345 877.3472 205261.6048 846.9345 877.3472
ENERGY: 400000 489.4688 1311.1237 556.5005 79.8480 -64287.4751 4590.2540 0.0000 0.0000 17200.6651 -40059.6150 401.7716 -57260.2801 -40019.9648 400.1839 84.9220 114.8613 229757.7465 4.7889 4.7480
ENERGY: 800000 488.9057 1333.2035 547.2019 92.3451 -63982.8990 4201.1669 0.0000 0.0000 16984.1426 -40335.9333 396.7141 -57320.0759 -40279.1923 399.7365 -459.9038 -436.2451 230715.0684 -9.7958 -9.6722
ENERGY: 1200000 495.8653 1275.9412 545.5889 84.7344 -64547.2966 4365.2551 0.0000 0.0000 16940.2739 -40839.6377 395.6895 -57779.9117 -40789.1133 399.5863 -358.0025 -327.0423 227216.4380 -7.5234 -7.5073
ENERGY: 1600000 453.5831 1293.1103 505.5310 86.3782 -64405.4703 4612.5644 0.0000 0.0000 17081.9454 -40372.3578 398.9986 -57454.3032 -40313.0474 398.1557 252.2062 277.4826 228727.6400 1.0384 0.9011
ENERGY: 2000000 507.7040 1319.1717 539.0996 90.1511 -64695.3425 4384.9171 0.0000 0.0000 17229.7014 -40624.5976 402.4499 -57854.2990 -40591.7712 398.9302 -371.5274 -340.8342 229256.6914 10.2270 10.2794
