Info: SIMULATION PARAMETERS:
Info: TIMESTEP               2
Info: NUMBER OF STEPS        200000
Info: STEPS PER CYCLE        10
Info: PERIODIC CELL BASIS 1  58.4134 0 0
Info: PERIODIC CELL BASIS 2  0 60.2871 0
Info: PERIODIC CELL BASIS 3  0 0 60.409
Info: PERIODIC CELL CENTER   20.1501 2.35997 -11.2844
Info: WRAPPING ALL CLUSTERS AROUND PERIODIC BOUNDARIES ON OUTPUT.
Info: FIRST LDB TIMESTEP     50
Info: LAST LDB TIMESTEP     -1
Info: HOM BACKGROUND SCALING 1
Info: PME BACKGROUND SCALING 1
Info: MIN ATOMS PER PATCH    40
Info: INITIAL TEMPERATURE    400
Info: CENTER OF MASS MOVING INITIALLY? NO
Info: DIELECTRIC             1
Info: EXCLUDE                SCALED ONE-FOUR
Info: 1-4 ELECTROSTATICS SCALED BY 1
Info: MODIFIED 1-4 VDW PARAMETERS WILL BE USED
Info: DCD FILENAME           400k_7_mutata.dcd
Info: DCD FREQUENCY          2000
Info: DCD FIRST STEP         2000
Info: DCD FILE WILL CONTAIN UNIT CELL DATA
Info: XST FILENAME           400k_7_mutata.xst
Info: XST FREQUENCY          2000
Info: NO VELOCITY DCD OUTPUT
Info: NO FORCE DCD OUTPUT
Info: OUTPUT FILENAME        400k_7_mutata
Info: BINARY OUTPUT FILES WILL BE USED
Info: RESTART FILENAME       400k_7_mutata.restart
Info: RESTART FREQUENCY      100000
Info: BINARY RESTART FILES WILL BE USED
Info: SWITCHING ACTIVE
Info: SWITCHING ON           10
Info: SWITCHING OFF          12
Info: PAIRLIST DISTANCE      14
Info: PAIRLIST SHRINK RATE   0.01
Info: PAIRLIST GROW RATE     0.01
Info: PAIRLIST TRIGGER       0.3
Info: PAIRLISTS PER CYCLE    2
Info: PAIRLISTS ENABLED
Info: MARGIN                 0.495
Info: HYDROGEN GROUP CUTOFF  2.5
Info: PATCH DIMENSION        16.995
Info: ENERGY OUTPUT STEPS    2000
Info: CROSSTERM ENERGY INCLUDED IN DIHEDRAL
Info: TIMING OUTPUT STEPS    2000
Info: PRESSURE OUTPUT STEPS  2000
Info: LANGEVIN DYNAMICS ACTIVE
Info: LANGEVIN TEMPERATURE   400
Info: LANGEVIN USING BBK INTEGRATOR
Info: LANGEVIN DAMPING COEFFICIENT IS 5 INVERSE PS
Info: LANGEVIN DYNAMICS NOT APPLIED TO HYDROGENS
Info: LANGEVIN PISTON PRESSURE CONTROL ACTIVE
Info:        TARGET PRESSURE IS 1.01325 BAR
Info:     OSCILLATION PERIOD IS 200 FS
Info:             DECAY TIME IS 100 FS
Info:     PISTON TEMPERATURE IS 400 K
Info:       PRESSURE CONTROL IS GROUP-BASED
Info:    INITIAL STRAIN RATE IS 4.38763e-05 4.38763e-05 4.38763e-05
Info:       CELL FLUCTUATION IS ISOTROPIC
Info: PARTICLE MESH EWALD (PME) ACTIVE
Info: PME TOLERANCE               1e-06
Info: PME EWALD COEFFICIENT       0.257952
Info: PME INTERPOLATION ORDER     4
Info: PME GRID DIMENSIONS         60 64 64
Info: PME MAXIMUM GRID SPACING    1
Info: FULL ELECTROSTATIC EVALUATION FREQUENCY      2
Info: USING VERLET I (r-RESPA) MTS SCHEME.
Info: C1 SPLITTING OF LONG RANGE ELECTROSTATICS
Info: PLACING ATOMS IN PATCHES BY HYDROGEN GROUPS
Info: RIGID BONDS TO HYDROGEN : ALL
Info:         ERROR TOLERANCE : 1e-08
Info:          MAX ITERATIONS : 100
Info: RIGID WATER USING SETTLE ALGORITHM
Info: RANDOM NUMBER SEED     9845845
Info: USE HYDROGEN BONDS?    NO
Info: COORDINATE PDB         ../../input_mutant_1/2PYP_mutata1_ionized.pdb
Info: STRUCTURE FILE         ../../input_mutant_1/2PYP_mutata1_ionized.psf
Info: PARAMETER file: CHARMM format!
Info: PARAMETERS             ../../input_mutant_1/par_all27_prot_lipid.inp
Info: USING ARITHMETIC MEAN TO COMBINE L-J SIGMA PARAMETERS
Info: BINARY COORDINATES     ../../input_mutant_1/2PYP_mutata1_final.coor
Info: SUMMARY OF PARAMETERS:
Info: 180 BONDS
Info: 447 ANGLES
Info: 566 DIHEDRAL
Info: 46 IMPROPER
Info: 6 CROSSTERM
Info: 119 VDW
Info: 0 VDW_PAIRS
Info: 0 NBTHOLE_PAIRS
Info: STRUCTURE SUMMARY:
Info: 21801 ATOMS
Info: 15220 BONDS
Info: 10230 ANGLES
Info: 5308 DIHEDRALS
Info: 323 IMPROPERS
Info: 121 CROSSTERMS
Info: 0 EXCLUSIONS
Info: 20790 RIGID BONDS
Info: 44613 DEGREES OF FREEDOM
Info: 7613 HYDROGEN GROUPS
Info: 4 ATOMS IN LARGEST HYDROGEN GROUP
Info: 7613 MIGRATION GROUPS
Info: 4 ATOMS IN LARGEST MIGRATION GROUP
Info: TOTAL MASS = 133337 amu
Info: TOTAL CHARGE = 1.7453e-06 e
Info: MASS DENSITY = 1.04081 g/cm^3
Info: ATOM DENSITY = 0.10248 atoms/A^3
Info: ADDED 30670 IMPLICIT EXCLUSIONS
Info: NONBONDED TABLE R-SQUARED SPACING: 0.0625
Info: NONBONDED TABLE SIZE: 769 POINTS
Info: REMOVING COM VELOCITY 0.0537883 -0.0598549 -0.0536477
Info: Updated CUDA force table with 4096 elements.
Info: Updated CUDA LJ table with 119 x 119 elements.
Info: Found 271 unique exclusion lists needing 840 bytes
ETITLE: TS BOND ANGLE DIHED IMPRP ELECT VDW BOUNDARY MISC KINETIC TOTAL TEMP POTENTIAL TOTAL3 TEMPAVG PRESSURE GPRESSURE VOLUME PRESSAVG GPRESSAVG
ENERGY: 0 382.7391 1050.9087 501.0889 61.6262 -77382.6418 6271.0631 0.0000 0.0000 17768.0613 -51347.1544 400.8381 -69115.2158 -51303.9698 400.8381 526.9396 558.8700 212734.8654 526.9396 558.8700
ENERGY: 40000 507.2133 1331.2424 574.5502 95.4580 -67265.5614 4554.5229 0.0000 0.0000 17756.6369 -42445.9376 400.5804 -60202.5745 -42395.0224 400.1952 -83.2018 -54.6200 236657.6237 7.7481 7.9569
ENERGY: 80000 510.9085 1323.8868 588.4520 87.8686 -67655.3932 4707.3211 0.0000 0.0000 17621.3921 -42815.5640 397.5293 -60436.9561 -42757.9215 399.7919 -81.9234 -60.2600 236681.9226 0.5928 0.5522
ENERGY: 120000 496.0195 1374.9823 600.2124 81.0064 -67842.4509 4857.4422 0.0000 0.0000 17657.0500 -42775.7380 398.3337 -60432.7880 -42721.1579 399.0175 216.0646 236.6358 235184.4254 6.2336 6.2711
ENERGY: 160000 515.1563 1421.0861 598.3214 83.0466 -67465.3011 4678.4742 0.0000 0.0000 17519.6475 -42649.5689 395.2340 -60169.2164 -42590.8008 399.5235 -99.1747 -67.2175 235932.7949 5.3761 5.4545
ENERGY: 200000 467.4135 1404.5197 579.1523 74.0665 -67486.2070 4737.6576 0.0000 0.0000 17705.3156 -42518.0817 399.4226 -60223.3973 -42468.6280 399.2560 34.0747 59.7925 236357.3975 1.0506 1.0603
