Info: SIMULATION PARAMETERS:
Info: TIMESTEP               2
Info: NUMBER OF STEPS        2000000
Info: STEPS PER CYCLE        10
Info: PERIODIC CELL BASIS 1  58.4345 0 0
Info: PERIODIC CELL BASIS 2  0 59.7796 0
Info: PERIODIC CELL BASIS 3  0 0 60.2479
Info: PERIODIC CELL CENTER   20.122 2.05778 -11.1904
Info: WRAPPING ALL CLUSTERS AROUND PERIODIC BOUNDARIES ON OUTPUT.
Info: FIRST LDB TIMESTEP     50
Info: LAST LDB TIMESTEP     -1
Info: HOM BACKGROUND SCALING 1
Info: PME BACKGROUND SCALING 1
Info: MIN ATOMS PER PATCH    40
Info: INITIAL TEMPERATURE    400
Info: CENTER OF MASS MOVING INITIALLY? NO
Info: DIELECTRIC             1
Info: EXCLUDE                SCALED ONE-FOUR
Info: 1-4 ELECTROSTATICS SCALED BY 1
Info: MODIFIED 1-4 VDW PARAMETERS WILL BE USED
Info: DCD FILENAME           400k_1_mutata4_4ns.dcd
Info: DCD FREQUENCY          2000
Info: DCD FIRST STEP         2000
Info: DCD FILE WILL CONTAIN UNIT CELL DATA
Info: XST FILENAME           400k_1_mutata4_4ns.xst
Info: XST FREQUENCY          2000
Info: NO VELOCITY DCD OUTPUT
Info: NO FORCE DCD OUTPUT
Info: OUTPUT FILENAME        400k_1_mutata4_4ns
Info: BINARY OUTPUT FILES WILL BE USED
Info: RESTART FILENAME       400k_1_mutata4_4ns.restart
Info: RESTART FREQUENCY      200000
Info: BINARY RESTART FILES WILL BE USED
Info: SWITCHING ACTIVE
Info: SWITCHING ON           10
Info: SWITCHING OFF          12
Info: PAIRLIST DISTANCE      14
Info: PAIRLIST SHRINK RATE   0.01
Info: PAIRLIST GROW RATE     0.01
Info: PAIRLIST TRIGGER       0.3
Info: PAIRLISTS PER CYCLE    2
Info: PAIRLISTS ENABLED
Info: MARGIN                 0.495
Info: HYDROGEN GROUP CUTOFF  2.5
Info: PATCH DIMENSION        16.995
Info: ENERGY OUTPUT STEPS    2000
Info: CROSSTERM ENERGY INCLUDED IN DIHEDRAL
Info: TIMING OUTPUT STEPS    2000
Info: PRESSURE OUTPUT STEPS  2000
Info: LANGEVIN DYNAMICS ACTIVE
Info: LANGEVIN TEMPERATURE   400
Info: LANGEVIN USING BBK INTEGRATOR
Info: LANGEVIN DAMPING COEFFICIENT IS 5 INVERSE PS
Info: LANGEVIN DYNAMICS NOT APPLIED TO HYDROGENS
Info: LANGEVIN PISTON PRESSURE CONTROL ACTIVE
Info:        TARGET PRESSURE IS 1.01325 BAR
Info:     OSCILLATION PERIOD IS 200 FS
Info:             DECAY TIME IS 100 FS
Info:     PISTON TEMPERATURE IS 400 K
Info:       PRESSURE CONTROL IS GROUP-BASED
Info:    INITIAL STRAIN RATE IS -7.53808e-06 -7.53808e-06 -7.53808e-06
Info:       CELL FLUCTUATION IS ISOTROPIC
Info: PARTICLE MESH EWALD (PME) ACTIVE
Info: PME TOLERANCE               1e-06
Info: PME EWALD COEFFICIENT       0.257952
Info: PME INTERPOLATION ORDER     4
Info: PME GRID DIMENSIONS         60 60 64
Info: PME MAXIMUM GRID SPACING    1
Info: FULL ELECTROSTATIC EVALUATION FREQUENCY      2
Info: USING VERLET I (r-RESPA) MTS SCHEME.
Info: C1 SPLITTING OF LONG RANGE ELECTROSTATICS
Info: PLACING ATOMS IN PATCHES BY HYDROGEN GROUPS
Info: RIGID BONDS TO HYDROGEN : ALL
Info:         ERROR TOLERANCE : 1e-08
Info:          MAX ITERATIONS : 100
Info: RIGID WATER USING SETTLE ALGORITHM
Info: RANDOM NUMBER SEED     2438412
Info: USE HYDROGEN BONDS?    NO
Info: COORDINATE PDB         ../../input_mutant_4/2PYP_mutata_ionized.pdb
Info: STRUCTURE FILE         ../../input_mutant_4/2PYP_mutata_ionized.psf
Info: PARAMETER file: CHARMM format!
Info: PARAMETERS             ../../input_mutant_4/par_all27_prot_lipid.inp
Info: USING ARITHMETIC MEAN TO COMBINE L-J SIGMA PARAMETERS
Info: BINARY COORDINATES     ../../input_mutant_4/2PYP_mutata_final.coor
Info: SUMMARY OF PARAMETERS:
Info: 180 BONDS
Info: 447 ANGLES
Info: 566 DIHEDRAL
Info: 46 IMPROPER
Info: 6 CROSSTERM
Info: 119 VDW
Info: 0 VDW_PAIRS
Info: 0 NBTHOLE_PAIRS
Info: STRUCTURE SUMMARY:
Info: 21514 ATOMS
Info: 15012 BONDS
Info: 10062 ANGLES
Info: 5172 DIHEDRALS
Info: 325 IMPROPERS
Info: 121 CROSSTERMS
Info: 0 EXCLUSIONS
Info: 20520 RIGID BONDS
Info: 44022 DEGREES OF FREEDOM
Info: 7516 HYDROGEN GROUPS
Info: 4 ATOMS IN LARGEST HYDROGEN GROUP
Info: 7516 MIGRATION GROUPS
Info: 4 ATOMS IN LARGEST MIGRATION GROUP
Info: TOTAL MASS = 131628 amu
Info: TOTAL CHARGE = 1.73785e-06 e
Info: MASS DENSITY = 1.03859 g/cm^3
Info: ATOM DENSITY = 0.102225 atoms/A^3
Info: ADDED 30163 IMPLICIT EXCLUSIONS
Info: NONBONDED TABLE R-SQUARED SPACING: 0.0625
Info: NONBONDED TABLE SIZE: 769 POINTS
Info: REMOVING COM VELOCITY -0.0153422 -0.0268674 -0.0463111
Info: Updated CUDA force table with 4096 elements.
Info: Updated CUDA LJ table with 119 x 119 elements.
Info: Found 270 unique exclusion lists needing 824 bytes
ETITLE: TS BOND ANGLE DIHED IMPRP ELECT VDW BOUNDARY MISC KINETIC TOTAL TEMP POTENTIAL TOTAL3 TEMPAVG PRESSURE GPRESSURE VOLUME PRESSAVG GPRESSAVG
ENERGY: 0 380.7298 1019.9602 491.6640 68.8260 -75948.0430 6241.3129 0.0000 0.0000 17397.1120 -50348.4381 397.7386 -67745.5500 -50305.5611 397.7386 705.7968 736.4684 210457.3555 705.7968 736.4684
ENERGY: 400000 521.6129 1365.3526 562.7382 97.9800 -66440.6436 4808.5166 0.0000 0.0000 17717.8097 -41366.6336 405.0705 -59084.4433 -41314.4493 399.2283 158.8241 186.4198 231786.6833 -2.7254 -2.8728
ENERGY: 800000 436.5073 1309.6383 539.9655 99.7658 -66145.0063 4617.1141 0.0000 0.0000 17474.6511 -41667.3641 399.5114 -59142.0152 -41623.2059 397.9376 55.7319 78.3891 235219.7390 5.0559 4.9501
ENERGY: 1200000 475.1283 1330.6180 502.6857 84.9380 -65841.8387 4436.3482 0.0000 0.0000 17650.5621 -41361.5585 403.5331 -59012.1205 -41305.4129 401.1705 -313.3306 -287.8363 233765.2848 6.1767 6.4013
ENERGY: 1600000 490.7927 1342.6946 553.2385 79.5588 -66397.2192 4932.5574 0.0000 0.0000 17276.2120 -41722.1654 394.9746 -58998.3773 -41672.5569 401.0388 368.1737 391.9743 233356.0579 2.0934 2.4108
ENERGY: 2000000 469.4696 1312.1147 525.8328 89.3936 -66295.0342 4661.3253 0.0000 0.0000 17736.8217 -41500.0765 405.5052 -59236.8982 -41439.2635 399.3855 56.9787 87.6421 233723.5880 -0.8787 -0.8522
