Info: SIMULATION PARAMETERS:
Info: TIMESTEP               2
Info: NUMBER OF STEPS        200000
Info: STEPS PER CYCLE        10
Info: PERIODIC CELL BASIS 1  58.2871 0 0
Info: PERIODIC CELL BASIS 2  0 59.9367 0
Info: PERIODIC CELL BASIS 3  0 0 60.7378
Info: PERIODIC CELL CENTER   18.9173 2.16779 -10.9975
Info: WRAPPING ALL CLUSTERS AROUND PERIODIC BOUNDARIES ON OUTPUT.
Info: FIRST LDB TIMESTEP     50
Info: LAST LDB TIMESTEP     -1
Info: HOM BACKGROUND SCALING 1
Info: PME BACKGROUND SCALING 1
Info: MIN ATOMS PER PATCH    40
Info: INITIAL TEMPERATURE    450
Info: CENTER OF MASS MOVING INITIALLY? NO
Info: DIELECTRIC             1
Info: EXCLUDE                SCALED ONE-FOUR
Info: 1-4 ELECTROSTATICS SCALED BY 1
Info: MODIFIED 1-4 VDW PARAMETERS WILL BE USED
Info: DCD FILENAME           450k_2.dcd
Info: DCD FREQUENCY          2000
Info: DCD FIRST STEP         2000
Info: DCD FILE WILL CONTAIN UNIT CELL DATA
Info: XST FILENAME           450k_2.xst
Info: XST FREQUENCY          2000
Info: NO VELOCITY DCD OUTPUT
Info: NO FORCE DCD OUTPUT
Info: OUTPUT FILENAME        450k_2
Info: BINARY OUTPUT FILES WILL BE USED
Info: RESTART FILENAME       450k_2.restart
Info: RESTART FREQUENCY      100000
Info: BINARY RESTART FILES WILL BE USED
Info: SWITCHING ACTIVE
Info: SWITCHING ON           10
Info: SWITCHING OFF          12
Info: PAIRLIST DISTANCE      14
Info: PAIRLIST SHRINK RATE   0.01
Info: PAIRLIST GROW RATE     0.01
Info: PAIRLIST TRIGGER       0.3
Info: PAIRLISTS PER CYCLE    2
Info: PAIRLISTS ENABLED
Info: MARGIN                 0.495
Info: HYDROGEN GROUP CUTOFF  2.5
Info: PATCH DIMENSION        16.995
Info: ENERGY OUTPUT STEPS    2000
Info: CROSSTERM ENERGY INCLUDED IN DIHEDRAL
Info: TIMING OUTPUT STEPS    2000
Info: PRESSURE OUTPUT STEPS  2000
Info: LANGEVIN DYNAMICS ACTIVE
Info: LANGEVIN TEMPERATURE   450
Info: LANGEVIN USING BBK INTEGRATOR
Info: LANGEVIN DAMPING COEFFICIENT IS 5 INVERSE PS
Info: LANGEVIN DYNAMICS NOT APPLIED TO HYDROGENS
Info: LANGEVIN PISTON PRESSURE CONTROL ACTIVE
Info:        TARGET PRESSURE IS 1.01325 BAR
Info:     OSCILLATION PERIOD IS 200 FS
Info:             DECAY TIME IS 100 FS
Info:     PISTON TEMPERATURE IS 450 K
Info:       PRESSURE CONTROL IS GROUP-BASED
Info:    INITIAL STRAIN RATE IS 1.93157e-05 1.93157e-05 1.93157e-05
Info:       CELL FLUCTUATION IS ISOTROPIC
Info: PARTICLE MESH EWALD (PME) ACTIVE
Info: PME TOLERANCE               1e-06
Info: PME EWALD COEFFICIENT       0.257952
Info: PME INTERPOLATION ORDER     4
Info: PME GRID DIMENSIONS         60 60 64
Info: PME MAXIMUM GRID SPACING    1
Info: FULL ELECTROSTATIC EVALUATION FREQUENCY      2
Info: USING VERLET I (r-RESPA) MTS SCHEME.
Info: C1 SPLITTING OF LONG RANGE ELECTROSTATICS
Info: PLACING ATOMS IN PATCHES BY HYDROGEN GROUPS
Info: RIGID BONDS TO HYDROGEN : ALL
Info:         ERROR TOLERANCE : 1e-08
Info:          MAX ITERATIONS : 100
Info: RIGID WATER USING SETTLE ALGORITHM
Info: RANDOM NUMBER SEED     463728
Info: USE HYDROGEN BONDS?    NO
Info: COORDINATE PDB         ./2PYP_ionized.pdb
Info: STRUCTURE FILE         ./2PYP_ionized.psf
Info: PARAMETER file: CHARMM format!
Info: PARAMETERS             ./par_all27_prot_lipid.inp
Info: USING ARITHMETIC MEAN TO COMBINE L-J SIGMA PARAMETERS
Info: BINARY COORDINATES     ./2PYP_final.coor
Info: SUMMARY OF PARAMETERS:
Info: 180 BONDS
Info: 447 ANGLES
Info: 566 DIHEDRAL
Info: 46 IMPROPER
Info: 6 CROSSTERM
Info: 119 VDW
Info: 0 VDW_PAIRS
Info: 0 NBTHOLE_PAIRS
Info: STRUCTURE SUMMARY:
Info: 21715 ATOMS
Info: 15133 BONDS
Info: 10087 ANGLES
Info: 5094 DIHEDRALS
Info: 322 IMPROPERS
Info: 121 CROSSTERMS
Info: 0 EXCLUSIONS
Info: 20735 RIGID BONDS
Info: 44410 DEGREES OF FREEDOM
Info: 7579 HYDROGEN GROUPS
Info: 4 ATOMS IN LARGEST HYDROGEN GROUP
Info: 7579 MIGRATION GROUPS
Info: 4 ATOMS IN LARGEST MIGRATION GROUP
Info: TOTAL MASS = 132845 amu
Info: TOTAL CHARGE = 1.69314e-06 e
Info: MASS DENSITY = 1.03964 g/cm^3
Info: ATOM DENSITY = 0.102338 atoms/A^3
Info: ADDED 30234 IMPLICIT EXCLUSIONS
Info: NONBONDED TABLE R-SQUARED SPACING: 0.0625
Info: NONBONDED TABLE SIZE: 769 POINTS
Info: REMOVING COM VELOCITY 0.0448477 0.0819427 -0.059198
ETITLE: TS BOND ANGLE DIHED IMPRP ELECT VDW BOUNDARY MISC KINETIC TOTAL TEMP POTENTIAL TOTAL3 TEMPAVG PRESSURE GPRESSURE VOLUME PRESSAVG GPRESSAVG
ENERGY: 0 368.8373 981.3991 483.9657 66.9342 -76475.8231 6331.2190 0.0000 0.0000 19973.6331 -48269.8347 452.6543 -68243.4678 -48226.3710 452.6543 823.0237 850.9772 212189.5522 823.0237 850.9772
ENERGY: 40000 524.6338 1423.0378 594.3045 85.7185 -61413.2464 4153.2846 0.0000 0.0000 19706.2282 -34926.0389 446.5942 -54632.2671 -34872.7449 447.9319 50.2039 65.2321 253294.7561 1.1702 1.1514
ENERGY: 80000 535.6915 1395.9449 576.5623 100.3788 -61486.9855 4107.2573 0.0000 0.0000 19735.3479 -35035.8027 447.2542 -54771.1506 -34979.3774 448.9845 203.5978 230.6131 250954.7014 -7.0551 -7.0756
ENERGY: 120000 538.2386 1395.3910 583.5687 84.6382 -61230.2940 3969.7776 0.0000 0.0000 19601.4621 -35057.2178 444.2200 -54658.6800 -35005.2373 448.6177 -316.7024 -300.1925 253232.9670 7.4377 7.4992
ENERGY: 160000 526.2297 1436.4903 587.8547 86.9061 -61208.1796 4153.9134 0.0000 0.0000 19787.2488 -34629.5365 448.4304 -54416.7854 -34574.2911 449.7264 97.6828 101.1441 254746.0197 -4.5019 -4.5743
ENERGY: 200000 533.3336 1432.2500 562.1037 103.6201 -61231.0169 3918.8533 0.0000 0.0000 19736.1590 -34944.6972 447.2726 -54680.8562 -34883.3187 448.4413 -126.3301 -105.6567 252830.9842 9.9251 9.8631
