Info: SIMULATION PARAMETERS:
Info: TIMESTEP               2
Info: NUMBER OF STEPS        200000
Info: STEPS PER CYCLE        10
Info: PERIODIC CELL BASIS 1  58.2871 0 0
Info: PERIODIC CELL BASIS 2  0 59.9367 0
Info: PERIODIC CELL BASIS 3  0 0 60.7378
Info: PERIODIC CELL CENTER   18.9173 2.16779 -10.9975
Info: WRAPPING ALL CLUSTERS AROUND PERIODIC BOUNDARIES ON OUTPUT.
Info: FIRST LDB TIMESTEP     50
Info: LAST LDB TIMESTEP     -1
Info: HOM BACKGROUND SCALING 1
Info: PME BACKGROUND SCALING 1
Info: MIN ATOMS PER PATCH    40
Info: INITIAL TEMPERATURE    450
Info: CENTER OF MASS MOVING INITIALLY? NO
Info: DIELECTRIC             1
Info: EXCLUDE                SCALED ONE-FOUR
Info: 1-4 ELECTROSTATICS SCALED BY 1
Info: MODIFIED 1-4 VDW PARAMETERS WILL BE USED
Info: DCD FILENAME           450k_4.dcd
Info: DCD FREQUENCY          2000
Info: DCD FIRST STEP         2000
Info: DCD FILE WILL CONTAIN UNIT CELL DATA
Info: XST FILENAME           450k_4.xst
Info: XST FREQUENCY          2000
Info: NO VELOCITY DCD OUTPUT
Info: NO FORCE DCD OUTPUT
Info: OUTPUT FILENAME        450k_4
Info: BINARY OUTPUT FILES WILL BE USED
Info: RESTART FILENAME       450k_4.restart
Info: RESTART FREQUENCY      100000
Info: BINARY RESTART FILES WILL BE USED
Info: SWITCHING ACTIVE
Info: SWITCHING ON           10
Info: SWITCHING OFF          12
Info: PAIRLIST DISTANCE      14
Info: PAIRLIST SHRINK RATE   0.01
Info: PAIRLIST GROW RATE     0.01
Info: PAIRLIST TRIGGER       0.3
Info: PAIRLISTS PER CYCLE    2
Info: PAIRLISTS ENABLED
Info: MARGIN                 0.495
Info: HYDROGEN GROUP CUTOFF  2.5
Info: PATCH DIMENSION        16.995
Info: ENERGY OUTPUT STEPS    2000
Info: CROSSTERM ENERGY INCLUDED IN DIHEDRAL
Info: TIMING OUTPUT STEPS    2000
Info: PRESSURE OUTPUT STEPS  2000
Info: LANGEVIN DYNAMICS ACTIVE
Info: LANGEVIN TEMPERATURE   450
Info: LANGEVIN USING BBK INTEGRATOR
Info: LANGEVIN DAMPING COEFFICIENT IS 5 INVERSE PS
Info: LANGEVIN DYNAMICS NOT APPLIED TO HYDROGENS
Info: LANGEVIN PISTON PRESSURE CONTROL ACTIVE
Info:        TARGET PRESSURE IS 1.01325 BAR
Info:     OSCILLATION PERIOD IS 200 FS
Info:             DECAY TIME IS 100 FS
Info:     PISTON TEMPERATURE IS 450 K
Info:       PRESSURE CONTROL IS GROUP-BASED
Info:    INITIAL STRAIN RATE IS 1.93157e-05 1.93157e-05 1.93157e-05
Info:       CELL FLUCTUATION IS ISOTROPIC
Info: PARTICLE MESH EWALD (PME) ACTIVE
Info: PME TOLERANCE               1e-06
Info: PME EWALD COEFFICIENT       0.257952
Info: PME INTERPOLATION ORDER     4
Info: PME GRID DIMENSIONS         60 60 64
Info: PME MAXIMUM GRID SPACING    1
Info: FULL ELECTROSTATIC EVALUATION FREQUENCY      2
Info: USING VERLET I (r-RESPA) MTS SCHEME.
Info: C1 SPLITTING OF LONG RANGE ELECTROSTATICS
Info: PLACING ATOMS IN PATCHES BY HYDROGEN GROUPS
Info: RIGID BONDS TO HYDROGEN : ALL
Info:         ERROR TOLERANCE : 1e-08
Info:          MAX ITERATIONS : 100
Info: RIGID WATER USING SETTLE ALGORITHM
Info: RANDOM NUMBER SEED     342347893
Info: USE HYDROGEN BONDS?    NO
Info: COORDINATE PDB         ./2PYP_ionized.pdb
Info: STRUCTURE FILE         ./2PYP_ionized.psf
Info: PARAMETER file: CHARMM format!
Info: PARAMETERS             ./par_all27_prot_lipid.inp
Info: USING ARITHMETIC MEAN TO COMBINE L-J SIGMA PARAMETERS
Info: BINARY COORDINATES     ./2PYP_final.coor
Info: SUMMARY OF PARAMETERS:
Info: 180 BONDS
Info: 447 ANGLES
Info: 566 DIHEDRAL
Info: 46 IMPROPER
Info: 6 CROSSTERM
Info: 119 VDW
Info: 0 VDW_PAIRS
Info: 0 NBTHOLE_PAIRS
Info: STRUCTURE SUMMARY:
Info: 21715 ATOMS
Info: 15133 BONDS
Info: 10087 ANGLES
Info: 5094 DIHEDRALS
Info: 322 IMPROPERS
Info: 121 CROSSTERMS
Info: 0 EXCLUSIONS
Info: 20735 RIGID BONDS
Info: 44410 DEGREES OF FREEDOM
Info: 7579 HYDROGEN GROUPS
Info: 4 ATOMS IN LARGEST HYDROGEN GROUP
Info: 7579 MIGRATION GROUPS
Info: 4 ATOMS IN LARGEST MIGRATION GROUP
Info: TOTAL MASS = 132845 amu
Info: TOTAL CHARGE = 1.69314e-06 e
Info: MASS DENSITY = 1.03964 g/cm^3
Info: ATOM DENSITY = 0.102338 atoms/A^3
Info: ADDED 30234 IMPLICIT EXCLUSIONS
Info: NONBONDED TABLE R-SQUARED SPACING: 0.0625
Info: NONBONDED TABLE SIZE: 769 POINTS
Info: REMOVING COM VELOCITY -0.00696233 0.00537737 0.0118333
ETITLE: TS BOND ANGLE DIHED IMPRP ELECT VDW BOUNDARY MISC KINETIC TOTAL TEMP POTENTIAL TOTAL3 TEMPAVG PRESSURE GPRESSURE VOLUME PRESSAVG GPRESSAVG
ENERGY: 0 368.8373 981.3991 483.9657 66.9342 -76475.8231 6331.2190 0.0000 0.0000 19776.3343 -48467.1335 448.1830 -68243.4678 -48423.6298 448.1830 790.3489 818.2733 212189.5522 790.3489 818.2733
ENERGY: 40000 539.8166 1389.0665 598.0722 91.3526 -61596.2585 4112.3967 0.0000 0.0000 19617.4970 -35248.0569 444.5834 -54865.5538 -35208.1368 449.0050 -162.6126 -128.6398 253053.9494 -0.2648 -0.2570
ENERGY: 80000 518.6294 1451.7391 562.3442 99.7040 -61313.0426 4143.5456 0.0000 0.0000 19949.2316 -34587.8487 452.1013 -54537.0803 -34533.0104 449.6559 -34.6105 -10.6938 255190.0221 -0.8719 -0.8013
ENERGY: 120000 476.7443 1453.0555 563.1615 92.3018 -61140.8558 3977.2845 0.0000 0.0000 19653.4335 -34924.8747 445.3978 -54578.3082 -34867.9299 447.6598 -160.5084 -130.9850 255439.8610 -5.6617 -5.5714
ENERGY: 160000 514.2810 1463.4695 576.7249 101.8321 -61066.4117 3969.7737 0.0000 0.0000 19872.2498 -34568.0806 450.3567 -54440.3304 -34520.7817 449.4036 -66.9420 -45.4381 255560.8379 -1.6794 -1.5060
ENERGY: 200000 546.1781 1460.5951 572.1399 96.3912 -61450.4840 3923.3353 0.0000 0.0000 19677.4487 -35174.3958 445.9420 -54851.8445 -35110.8801 447.8393 -369.4382 -354.2725 254548.8343 -16.9148 -16.9138
