Info: SIMULATION PARAMETERS:
Info: TIMESTEP               2
Info: NUMBER OF STEPS        2000000
Info: STEPS PER CYCLE        10
Info: PERIODIC CELL BASIS 1  58.4345 0 0
Info: PERIODIC CELL BASIS 2  0 59.7796 0
Info: PERIODIC CELL BASIS 3  0 0 60.2479
Info: PERIODIC CELL CENTER   20.122 2.05778 -11.1904
Info: WRAPPING ALL CLUSTERS AROUND PERIODIC BOUNDARIES ON OUTPUT.
Info: FIRST LDB TIMESTEP     50
Info: LAST LDB TIMESTEP     -1
Info: HOM BACKGROUND SCALING 1
Info: PME BACKGROUND SCALING 1
Info: MIN ATOMS PER PATCH    40
Info: INITIAL TEMPERATURE    400
Info: CENTER OF MASS MOVING INITIALLY? NO
Info: DIELECTRIC             1
Info: EXCLUDE                SCALED ONE-FOUR
Info: 1-4 ELECTROSTATICS SCALED BY 1
Info: MODIFIED 1-4 VDW PARAMETERS WILL BE USED
Info: DCD FILENAME           400k_2_mutata4_4ns.dcd
Info: DCD FREQUENCY          2000
Info: DCD FIRST STEP         2000
Info: DCD FILE WILL CONTAIN UNIT CELL DATA
Info: XST FILENAME           400k_2_mutata4_4ns.xst
Info: XST FREQUENCY          2000
Info: NO VELOCITY DCD OUTPUT
Info: NO FORCE DCD OUTPUT
Info: OUTPUT FILENAME        400k_2_mutata4_4ns
Info: BINARY OUTPUT FILES WILL BE USED
Info: RESTART FILENAME       400k_2_mutata4_4ns.restart
Info: RESTART FREQUENCY      200000
Info: BINARY RESTART FILES WILL BE USED
Info: SWITCHING ACTIVE
Info: SWITCHING ON           10
Info: SWITCHING OFF          12
Info: PAIRLIST DISTANCE      14
Info: PAIRLIST SHRINK RATE   0.01
Info: PAIRLIST GROW RATE     0.01
Info: PAIRLIST TRIGGER       0.3
Info: PAIRLISTS PER CYCLE    2
Info: PAIRLISTS ENABLED
Info: MARGIN                 0.495
Info: HYDROGEN GROUP CUTOFF  2.5
Info: PATCH DIMENSION        16.995
Info: ENERGY OUTPUT STEPS    2000
Info: CROSSTERM ENERGY INCLUDED IN DIHEDRAL
Info: TIMING OUTPUT STEPS    2000
Info: PRESSURE OUTPUT STEPS  2000
Info: LANGEVIN DYNAMICS ACTIVE
Info: LANGEVIN TEMPERATURE   400
Info: LANGEVIN USING BBK INTEGRATOR
Info: LANGEVIN DAMPING COEFFICIENT IS 5 INVERSE PS
Info: LANGEVIN DYNAMICS NOT APPLIED TO HYDROGENS
Info: LANGEVIN PISTON PRESSURE CONTROL ACTIVE
Info:        TARGET PRESSURE IS 1.01325 BAR
Info:     OSCILLATION PERIOD IS 200 FS
Info:             DECAY TIME IS 100 FS
Info:     PISTON TEMPERATURE IS 400 K
Info:       PRESSURE CONTROL IS GROUP-BASED
Info:    INITIAL STRAIN RATE IS -7.53808e-06 -7.53808e-06 -7.53808e-06
Info:       CELL FLUCTUATION IS ISOTROPIC
Info: PARTICLE MESH EWALD (PME) ACTIVE
Info: PME TOLERANCE               1e-06
Info: PME EWALD COEFFICIENT       0.257952
Info: PME INTERPOLATION ORDER     4
Info: PME GRID DIMENSIONS         60 60 64
Info: PME MAXIMUM GRID SPACING    1
Info: FULL ELECTROSTATIC EVALUATION FREQUENCY      2
Info: USING VERLET I (r-RESPA) MTS SCHEME.
Info: C1 SPLITTING OF LONG RANGE ELECTROSTATICS
Info: PLACING ATOMS IN PATCHES BY HYDROGEN GROUPS
Info: RIGID BONDS TO HYDROGEN : ALL
Info:         ERROR TOLERANCE : 1e-08
Info:          MAX ITERATIONS : 100
Info: RIGID WATER USING SETTLE ALGORITHM
Info: RANDOM NUMBER SEED     451351
Info: USE HYDROGEN BONDS?    NO
Info: COORDINATE PDB         ../../input_mutant_4/2PYP_mutata_ionized.pdb
Info: STRUCTURE FILE         ../../input_mutant_4/2PYP_mutata_ionized.psf
Info: PARAMETER file: CHARMM format!
Info: PARAMETERS             ../../input_mutant_4/par_all27_prot_lipid.inp
Info: USING ARITHMETIC MEAN TO COMBINE L-J SIGMA PARAMETERS
Info: BINARY COORDINATES     ../../input_mutant_4/2PYP_mutata_final.coor
Info: SUMMARY OF PARAMETERS:
Info: 180 BONDS
Info: 447 ANGLES
Info: 566 DIHEDRAL
Info: 46 IMPROPER
Info: 6 CROSSTERM
Info: 119 VDW
Info: 0 VDW_PAIRS
Info: 0 NBTHOLE_PAIRS
Info: STRUCTURE SUMMARY:
Info: 21514 ATOMS
Info: 15012 BONDS
Info: 10062 ANGLES
Info: 5172 DIHEDRALS
Info: 325 IMPROPERS
Info: 121 CROSSTERMS
Info: 0 EXCLUSIONS
Info: 20520 RIGID BONDS
Info: 44022 DEGREES OF FREEDOM
Info: 7516 HYDROGEN GROUPS
Info: 4 ATOMS IN LARGEST HYDROGEN GROUP
Info: 7516 MIGRATION GROUPS
Info: 4 ATOMS IN LARGEST MIGRATION GROUP
Info: TOTAL MASS = 131628 amu
Info: TOTAL CHARGE = 1.73785e-06 e
Info: MASS DENSITY = 1.03859 g/cm^3
Info: ATOM DENSITY = 0.102225 atoms/A^3
Info: ADDED 30163 IMPLICIT EXCLUSIONS
Info: NONBONDED TABLE R-SQUARED SPACING: 0.0625
Info: NONBONDED TABLE SIZE: 769 POINTS
Info: REMOVING COM VELOCITY -0.0560053 0.0500198 0.0541248
Info: Updated CUDA force table with 4096 elements.
Info: Updated CUDA LJ table with 119 x 119 elements.
Info: Found 270 unique exclusion lists needing 824 bytes
ETITLE: TS BOND ANGLE DIHED IMPRP ELECT VDW BOUNDARY MISC KINETIC TOTAL TEMP POTENTIAL TOTAL3 TEMPAVG PRESSURE GPRESSURE VOLUME PRESSAVG GPRESSAVG
ENERGY: 0 380.7298 1019.9602 491.6640 68.8260 -75948.0430 6241.3129 0.0000 0.0000 17479.7581 -50265.7920 399.6281 -67745.5500 -50222.7818 399.6281 717.9649 748.5434 210457.3555 717.9649 748.5434
ENERGY: 400000 495.3709 1313.2244 527.9438 96.0679 -65763.2578 4552.3073 0.0000 0.0000 17471.1816 -41307.1618 399.4320 -58778.3434 -41255.0541 399.9968 -5.7218 13.2769 234843.1758 3.1080 3.0628
ENERGY: 800000 443.5526 1333.0317 535.7913 87.8287 -66242.3811 4766.6228 0.0000 0.0000 17440.5741 -41634.9799 398.7323 -59075.5540 -41575.6587 398.9881 324.3287 353.4740 232871.1029 1.8001 1.9419
ENERGY: 1200000 444.7707 1333.9494 551.7562 83.0847 -66150.0194 4600.9726 0.0000 0.0000 17249.6068 -41885.8789 394.3663 -59135.4857 -41825.5342 398.1066 -90.2866 -55.5626 233823.3685 -2.3912 -2.4143
ENERGY: 1600000 498.9729 1358.0246 554.5417 95.6816 -65974.4674 4560.4861 0.0000 0.0000 17516.2477 -41390.5128 400.4624 -58906.7605 -41343.8616 398.7570 -188.3998 -159.8920 234323.3607 4.2024 4.3860
ENERGY: 2000000 483.8545 1334.3088 537.0249 74.2702 -66084.0018 4540.6881 0.0000 0.0000 17646.2743 -41467.5808 403.4351 -59113.8551 -41408.5596 398.6271 -146.0985 -123.6352 234458.9228 -0.1965 -0.0967
