Info: SIMULATION PARAMETERS:
Info: TIMESTEP               2
Info: NUMBER OF STEPS        200000
Info: STEPS PER CYCLE        10
Info: PERIODIC CELL BASIS 1  58.2871 0 0
Info: PERIODIC CELL BASIS 2  0 59.9367 0
Info: PERIODIC CELL BASIS 3  0 0 60.7378
Info: PERIODIC CELL CENTER   18.9173 2.16779 -10.9975
Info: WRAPPING ALL CLUSTERS AROUND PERIODIC BOUNDARIES ON OUTPUT.
Info: FIRST LDB TIMESTEP     50
Info: LAST LDB TIMESTEP     -1
Info: HOM BACKGROUND SCALING 1
Info: PME BACKGROUND SCALING 1
Info: MIN ATOMS PER PATCH    40
Info: INITIAL TEMPERATURE    400
Info: CENTER OF MASS MOVING INITIALLY? NO
Info: DIELECTRIC             1
Info: EXCLUDE                SCALED ONE-FOUR
Info: 1-4 ELECTROSTATICS SCALED BY 1
Info: MODIFIED 1-4 VDW PARAMETERS WILL BE USED
Info: DCD FILENAME           400k_3.dcd
Info: DCD FREQUENCY          2000
Info: DCD FIRST STEP         2000
Info: DCD FILE WILL CONTAIN UNIT CELL DATA
Info: XST FILENAME           400k_3.xst
Info: XST FREQUENCY          2000
Info: NO VELOCITY DCD OUTPUT
Info: NO FORCE DCD OUTPUT
Info: OUTPUT FILENAME        400k_3
Info: BINARY OUTPUT FILES WILL BE USED
Info: RESTART FILENAME       400k_3.restart
Info: RESTART FREQUENCY      100000
Info: BINARY RESTART FILES WILL BE USED
Info: SWITCHING ACTIVE
Info: SWITCHING ON           10
Info: SWITCHING OFF          12
Info: PAIRLIST DISTANCE      14
Info: PAIRLIST SHRINK RATE   0.01
Info: PAIRLIST GROW RATE     0.01
Info: PAIRLIST TRIGGER       0.3
Info: PAIRLISTS PER CYCLE    2
Info: PAIRLISTS ENABLED
Info: MARGIN                 0.495
Info: HYDROGEN GROUP CUTOFF  2.5
Info: PATCH DIMENSION        16.995
Info: ENERGY OUTPUT STEPS    2000
Info: CROSSTERM ENERGY INCLUDED IN DIHEDRAL
Info: TIMING OUTPUT STEPS    2000
Info: PRESSURE OUTPUT STEPS  2000
Info: LANGEVIN DYNAMICS ACTIVE
Info: LANGEVIN TEMPERATURE   400
Info: LANGEVIN USING BBK INTEGRATOR
Info: LANGEVIN DAMPING COEFFICIENT IS 5 INVERSE PS
Info: LANGEVIN DYNAMICS NOT APPLIED TO HYDROGENS
Info: LANGEVIN PISTON PRESSURE CONTROL ACTIVE
Info:        TARGET PRESSURE IS 1.01325 BAR
Info:     OSCILLATION PERIOD IS 200 FS
Info:             DECAY TIME IS 100 FS
Info:     PISTON TEMPERATURE IS 400 K
Info:       PRESSURE CONTROL IS GROUP-BASED
Info:    INITIAL STRAIN RATE IS 1.93157e-05 1.93157e-05 1.93157e-05
Info:       CELL FLUCTUATION IS ISOTROPIC
Info: PARTICLE MESH EWALD (PME) ACTIVE
Info: PME TOLERANCE               1e-06
Info: PME EWALD COEFFICIENT       0.257952
Info: PME INTERPOLATION ORDER     4
Info: PME GRID DIMENSIONS         60 60 64
Info: PME MAXIMUM GRID SPACING    1
Info: FULL ELECTROSTATIC EVALUATION FREQUENCY      2
Info: USING VERLET I (r-RESPA) MTS SCHEME.
Info: C1 SPLITTING OF LONG RANGE ELECTROSTATICS
Info: PLACING ATOMS IN PATCHES BY HYDROGEN GROUPS
Info: RIGID BONDS TO HYDROGEN : ALL
Info:         ERROR TOLERANCE : 1e-08
Info:          MAX ITERATIONS : 100
Info: RIGID WATER USING SETTLE ALGORITHM
Info: RANDOM NUMBER SEED     33726
Info: USE HYDROGEN BONDS?    NO
Info: COORDINATE PDB         ./2PYP_ionized.pdb
Info: STRUCTURE FILE         ./2PYP_ionized.psf
Info: PARAMETER file: CHARMM format!
Info: PARAMETERS             ./par_all27_prot_lipid.inp
Info: USING ARITHMETIC MEAN TO COMBINE L-J SIGMA PARAMETERS
Info: BINARY COORDINATES     ./2PYP_final.coor
Info: SUMMARY OF PARAMETERS:
Info: 180 BONDS
Info: 447 ANGLES
Info: 566 DIHEDRAL
Info: 46 IMPROPER
Info: 6 CROSSTERM
Info: 119 VDW
Info: 0 VDW_PAIRS
Info: 0 NBTHOLE_PAIRS
Info: STRUCTURE SUMMARY:
Info: 21715 ATOMS
Info: 15133 BONDS
Info: 10087 ANGLES
Info: 5094 DIHEDRALS
Info: 322 IMPROPERS
Info: 121 CROSSTERMS
Info: 0 EXCLUSIONS
Info: 20735 RIGID BONDS
Info: 44410 DEGREES OF FREEDOM
Info: 7579 HYDROGEN GROUPS
Info: 4 ATOMS IN LARGEST HYDROGEN GROUP
Info: 7579 MIGRATION GROUPS
Info: 4 ATOMS IN LARGEST MIGRATION GROUP
Info: TOTAL MASS = 132845 amu
Info: TOTAL CHARGE = 1.69314e-06 e
Info: MASS DENSITY = 1.03964 g/cm^3
Info: ATOM DENSITY = 0.102338 atoms/A^3
Info: ADDED 30234 IMPLICIT EXCLUSIONS
Info: NONBONDED TABLE R-SQUARED SPACING: 0.0625
Info: NONBONDED TABLE SIZE: 769 POINTS
Info: REMOVING COM VELOCITY -0.075364 -0.0371558 0.00452487
ETITLE: TS BOND ANGLE DIHED IMPRP ELECT VDW BOUNDARY MISC KINETIC TOTAL TEMP POTENTIAL TOTAL3 TEMPAVG PRESSURE GPRESSURE VOLUME PRESSAVG GPRESSAVG
ENERGY: 0 368.8373 981.3991 483.9657 66.9342 -76475.8231 6331.2190 0.0000 0.0000 17455.4783 -50787.9894 395.5864 -68243.4678 -50745.7833 395.5864 537.6379 565.0655 212189.5522 537.6379 565.0655
ENERGY: 40000 485.3500 1353.7581 553.6662 91.8960 -66316.4842 4751.7155 0.0000 0.0000 17516.5356 -41563.5629 396.9701 -59080.0985 -41513.7076 399.9353 -85.1108 -65.5157 236031.7742 1.4506 1.1923
ENERGY: 80000 467.6244 1288.3112 549.8645 90.5664 -66160.8869 4686.1659 0.0000 0.0000 17404.3031 -41674.0513 394.4266 -59078.3544 -41614.8816 398.4074 -79.1061 -42.9053 236471.0499 -1.0688 -1.0190
ENERGY: 120000 479.3479 1317.0681 554.2640 84.5271 -66646.9445 4773.6265 0.0000 0.0000 17549.4989 -41888.6119 397.7172 -59438.1108 -41831.4030 397.4097 -124.5252 -92.5617 234695.9306 9.5341 9.5478
ENERGY: 160000 517.0994 1322.7766 537.7348 95.2224 -66380.2237 4604.8303 0.0000 0.0000 17750.6525 -41551.9077 402.2758 -59302.5602 -41496.0964 398.8272 -364.9127 -331.0747 235558.3940 -6.1651 -6.0630
ENERGY: 200000 452.4763 1269.3009 542.2304 81.0636 -66305.0117 4696.1314 0.0000 0.0000 17820.4034 -41443.4056 403.8566 -59263.8091 -41388.6563 401.0581 80.8221 106.5563 235527.3915 -10.0292 -10.0286
