Info: SIMULATION PARAMETERS:
Info: TIMESTEP               2
Info: NUMBER OF STEPS        200000
Info: STEPS PER CYCLE        10
Info: PERIODIC CELL BASIS 1  59.1391 0 0
Info: PERIODIC CELL BASIS 2  0 63.1519 0
Info: PERIODIC CELL BASIS 3  0 0 60.2599
Info: PERIODIC CELL CENTER   18.4185 3.7149 -11.2402
Info: WRAPPING ALL CLUSTERS AROUND PERIODIC BOUNDARIES ON OUTPUT.
Info: FIRST LDB TIMESTEP     50
Info: LAST LDB TIMESTEP     -1
Info: HOM BACKGROUND SCALING 1
Info: PME BACKGROUND SCALING 1
Info: MIN ATOMS PER PATCH    40
Info: INITIAL TEMPERATURE    400
Info: CENTER OF MASS MOVING INITIALLY? NO
Info: DIELECTRIC             1
Info: EXCLUDE                SCALED ONE-FOUR
Info: 1-4 ELECTROSTATICS SCALED BY 1
Info: MODIFIED 1-4 VDW PARAMETERS WILL BE USED
Info: DCD FILENAME           400k_7_mutata2.dcd
Info: DCD FREQUENCY          2000
Info: DCD FIRST STEP         2000
Info: DCD FILE WILL CONTAIN UNIT CELL DATA
Info: XST FILENAME           400k_7_mutata2.xst
Info: XST FREQUENCY          2000
Info: NO VELOCITY DCD OUTPUT
Info: NO FORCE DCD OUTPUT
Info: OUTPUT FILENAME        400k_7_mutata2
Info: BINARY OUTPUT FILES WILL BE USED
Info: RESTART FILENAME       400k_7_mutata2.restart
Info: RESTART FREQUENCY      100000
Info: BINARY RESTART FILES WILL BE USED
Info: SWITCHING ACTIVE
Info: SWITCHING ON           10
Info: SWITCHING OFF          12
Info: PAIRLIST DISTANCE      14
Info: PAIRLIST SHRINK RATE   0.01
Info: PAIRLIST GROW RATE     0.01
Info: PAIRLIST TRIGGER       0.3
Info: PAIRLISTS PER CYCLE    2
Info: PAIRLISTS ENABLED
Info: MARGIN                 0.495
Info: HYDROGEN GROUP CUTOFF  2.5
Info: PATCH DIMENSION        16.995
Info: ENERGY OUTPUT STEPS    2000
Info: CROSSTERM ENERGY INCLUDED IN DIHEDRAL
Info: TIMING OUTPUT STEPS    2000
Info: PRESSURE OUTPUT STEPS  2000
Info: LANGEVIN DYNAMICS ACTIVE
Info: LANGEVIN TEMPERATURE   400
Info: LANGEVIN USING BBK INTEGRATOR
Info: LANGEVIN DAMPING COEFFICIENT IS 5 INVERSE PS
Info: LANGEVIN DYNAMICS NOT APPLIED TO HYDROGENS
Info: LANGEVIN PISTON PRESSURE CONTROL ACTIVE
Info:        TARGET PRESSURE IS 1.01325 BAR
Info:     OSCILLATION PERIOD IS 200 FS
Info:             DECAY TIME IS 100 FS
Info:     PISTON TEMPERATURE IS 400 K
Info:       PRESSURE CONTROL IS GROUP-BASED
Info:    INITIAL STRAIN RATE IS -1.92523e-05 -1.92523e-05 -1.92523e-05
Info:       CELL FLUCTUATION IS ISOTROPIC
Info: PARTICLE MESH EWALD (PME) ACTIVE
Info: PME TOLERANCE               1e-06
Info: PME EWALD COEFFICIENT       0.257952
Info: PME INTERPOLATION ORDER     4
Info: PME GRID DIMENSIONS         60 64 64
Info: PME MAXIMUM GRID SPACING    1
Info: FULL ELECTROSTATIC EVALUATION FREQUENCY      2
Info: USING VERLET I (r-RESPA) MTS SCHEME.
Info: C1 SPLITTING OF LONG RANGE ELECTROSTATICS
Info: PLACING ATOMS IN PATCHES BY HYDROGEN GROUPS
Info: RIGID BONDS TO HYDROGEN : ALL
Info:         ERROR TOLERANCE : 1e-08
Info:          MAX ITERATIONS : 100
Info: RIGID WATER USING SETTLE ALGORITHM
Info: RANDOM NUMBER SEED     80808
Info: USE HYDROGEN BONDS?    NO
Info: COORDINATE PDB         ../../input_mutant_2/2PYP_mutata2_ionized.pdb
Info: STRUCTURE FILE         ../../input_mutant_2/2PYP_mutata2_ionized.psf
Info: PARAMETER file: CHARMM format!
Info: PARAMETERS             ../../input_mutant_2/par_all27_prot_lipid.inp
Info: USING ARITHMETIC MEAN TO COMBINE L-J SIGMA PARAMETERS
Info: BINARY COORDINATES     ../../input_mutant_2/2PYP_mutata2_final.coor
Info: SUMMARY OF PARAMETERS:
Info: 180 BONDS
Info: 447 ANGLES
Info: 566 DIHEDRAL
Info: 46 IMPROPER
Info: 6 CROSSTERM
Info: 119 VDW
Info: 0 VDW_PAIRS
Info: 0 NBTHOLE_PAIRS
Info: STRUCTURE SUMMARY:
Info: 23087 ATOMS
Info: 16069 BONDS
Info: 10621 ANGLES
Info: 5232 DIHEDRALS
Info: 327 IMPROPERS
Info: 121 CROSSTERMS
Info: 0 EXCLUSIONS
Info: 22087 RIGID BONDS
Info: 47174 DEGREES OF FREEDOM
Info: 8039 HYDROGEN GROUPS
Info: 4 ATOMS IN LARGEST HYDROGEN GROUP
Info: 8039 MIGRATION GROUPS
Info: 4 ATOMS IN LARGEST MIGRATION GROUP
Info: TOTAL MASS = 141020 amu
Info: TOTAL CHARGE = 1.76765e-06 e
Info: MASS DENSITY = 1.04052 g/cm^3
Info: ATOM DENSITY = 0.102584 atoms/A^3
Info: ADDED 31842 IMPLICIT EXCLUSIONS
Info: NONBONDED TABLE R-SQUARED SPACING: 0.0625
Info: NONBONDED TABLE SIZE: 769 POINTS
Info: REMOVING COM VELOCITY -0.0165183 0.037174 0.0510462
Info: Updated CUDA force table with 4096 elements.
Info: Updated CUDA LJ table with 119 x 119 elements.
Info: Found 272 unique exclusion lists needing 848 bytes
ETITLE: TS BOND ANGLE DIHED IMPRP ELECT VDW BOUNDARY MISC KINETIC TOTAL TEMP POTENTIAL TOTAL3 TEMPAVG PRESSURE GPRESSURE VOLUME PRESSAVG GPRESSAVG
ENERGY: 0 413.0961 1063.3539 518.0864 65.8009 -81940.8067 6741.5240 0.0000 0.0000 18724.2773 -54414.6681 399.4779 -73138.9454 -54368.2720 399.4779 781.1094 811.5242 225055.5131 781.1094 811.5242
ENERGY: 40000 523.4177 1399.1217 585.1104 91.5975 -70920.6500 4913.1435 0.0000 0.0000 18648.4440 -44759.8151 397.8600 -63408.2591 -44710.7289 398.6551 -190.3314 -173.8149 252066.3323 -5.2092 -5.2143
ENERGY: 80000 489.5438 1283.9996 557.5725 86.3695 -71306.4261 5085.4528 0.0000 0.0000 18647.8913 -45155.5966 397.8482 -63803.4879 -45105.8057 398.0276 74.7120 106.0250 250517.3714 5.5595 5.5741
ENERGY: 120000 492.1380 1366.0213 545.9253 86.1511 -71057.0997 4967.5068 0.0000 0.0000 18825.9860 -44773.3712 401.6478 -63599.3572 -44722.2647 400.4791 14.5819 54.0438 252188.4363 -1.0995 -1.0808
ENERGY: 160000 544.1263 1352.5540 575.4687 88.2173 -71198.4947 5117.1231 0.0000 0.0000 18850.8100 -44670.1953 402.1774 -63521.0053 -44605.6619 399.0709 -50.8483 -17.7232 251941.9827 0.5665 0.7758
ENERGY: 200000 516.1467 1355.3874 525.4556 86.7017 -71224.2016 4985.8613 0.0000 0.0000 18703.2978 -45051.3511 399.0303 -63754.6488 -44995.8475 400.6640 -117.1737 -91.9090 250908.6184 12.4289 12.5281
