Info: SIMULATION PARAMETERS:
Info: TIMESTEP               2
Info: NUMBER OF STEPS        200000
Info: STEPS PER CYCLE        10
Info: PERIODIC CELL BASIS 1  59.1391 0 0
Info: PERIODIC CELL BASIS 2  0 63.1519 0
Info: PERIODIC CELL BASIS 3  0 0 60.2599
Info: PERIODIC CELL CENTER   18.4185 3.7149 -11.2402
Info: WRAPPING ALL CLUSTERS AROUND PERIODIC BOUNDARIES ON OUTPUT.
Info: FIRST LDB TIMESTEP     50
Info: LAST LDB TIMESTEP     -1
Info: HOM BACKGROUND SCALING 1
Info: PME BACKGROUND SCALING 1
Info: MIN ATOMS PER PATCH    40
Info: INITIAL TEMPERATURE    450
Info: CENTER OF MASS MOVING INITIALLY? NO
Info: DIELECTRIC             1
Info: EXCLUDE                SCALED ONE-FOUR
Info: 1-4 ELECTROSTATICS SCALED BY 1
Info: MODIFIED 1-4 VDW PARAMETERS WILL BE USED
Info: DCD FILENAME           450k_6_mutata2.dcd
Info: DCD FREQUENCY          2000
Info: DCD FIRST STEP         2000
Info: DCD FILE WILL CONTAIN UNIT CELL DATA
Info: XST FILENAME           450k_6_mutata2.xst
Info: XST FREQUENCY          2000
Info: NO VELOCITY DCD OUTPUT
Info: NO FORCE DCD OUTPUT
Info: OUTPUT FILENAME        450k_6_mutata2
Info: BINARY OUTPUT FILES WILL BE USED
Info: RESTART FILENAME       450k_6_mutata2.restart
Info: RESTART FREQUENCY      100000
Info: BINARY RESTART FILES WILL BE USED
Info: SWITCHING ACTIVE
Info: SWITCHING ON           10
Info: SWITCHING OFF          12
Info: PAIRLIST DISTANCE      14
Info: PAIRLIST SHRINK RATE   0.01
Info: PAIRLIST GROW RATE     0.01
Info: PAIRLIST TRIGGER       0.3
Info: PAIRLISTS PER CYCLE    2
Info: PAIRLISTS ENABLED
Info: MARGIN                 0.495
Info: HYDROGEN GROUP CUTOFF  2.5
Info: PATCH DIMENSION        16.995
Info: ENERGY OUTPUT STEPS    2000
Info: CROSSTERM ENERGY INCLUDED IN DIHEDRAL
Info: TIMING OUTPUT STEPS    2000
Info: PRESSURE OUTPUT STEPS  2000
Info: LANGEVIN DYNAMICS ACTIVE
Info: LANGEVIN TEMPERATURE   450
Info: LANGEVIN USING BBK INTEGRATOR
Info: LANGEVIN DAMPING COEFFICIENT IS 5 INVERSE PS
Info: LANGEVIN DYNAMICS NOT APPLIED TO HYDROGENS
Info: LANGEVIN PISTON PRESSURE CONTROL ACTIVE
Info:        TARGET PRESSURE IS 1.01325 BAR
Info:     OSCILLATION PERIOD IS 200 FS
Info:             DECAY TIME IS 100 FS
Info:     PISTON TEMPERATURE IS 450 K
Info:       PRESSURE CONTROL IS GROUP-BASED
Info:    INITIAL STRAIN RATE IS -1.92523e-05 -1.92523e-05 -1.92523e-05
Info:       CELL FLUCTUATION IS ISOTROPIC
Info: PARTICLE MESH EWALD (PME) ACTIVE
Info: PME TOLERANCE               1e-06
Info: PME EWALD COEFFICIENT       0.257952
Info: PME INTERPOLATION ORDER     4
Info: PME GRID DIMENSIONS         60 64 64
Info: PME MAXIMUM GRID SPACING    1
Info: FULL ELECTROSTATIC EVALUATION FREQUENCY      2
Info: USING VERLET I (r-RESPA) MTS SCHEME.
Info: C1 SPLITTING OF LONG RANGE ELECTROSTATICS
Info: PLACING ATOMS IN PATCHES BY HYDROGEN GROUPS
Info: RIGID BONDS TO HYDROGEN : ALL
Info:         ERROR TOLERANCE : 1e-08
Info:          MAX ITERATIONS : 100
Info: RIGID WATER USING SETTLE ALGORITHM
Info: RANDOM NUMBER SEED     745
Info: USE HYDROGEN BONDS?    NO
Info: COORDINATE PDB         ../../input_mutant_2/2PYP_mutata2_ionized.pdb
Info: STRUCTURE FILE         ../../input_mutant_2/2PYP_mutata2_ionized.psf
Info: PARAMETER file: CHARMM format!
Info: PARAMETERS             ../../input_mutant_2/par_all27_prot_lipid.inp
Info: USING ARITHMETIC MEAN TO COMBINE L-J SIGMA PARAMETERS
Info: BINARY COORDINATES     ../../input_mutant_2/2PYP_mutata2_final.coor
Info: SUMMARY OF PARAMETERS:
Info: 180 BONDS
Info: 447 ANGLES
Info: 566 DIHEDRAL
Info: 46 IMPROPER
Info: 6 CROSSTERM
Info: 119 VDW
Info: 0 VDW_PAIRS
Info: 0 NBTHOLE_PAIRS
Info: STRUCTURE SUMMARY:
Info: 23087 ATOMS
Info: 16069 BONDS
Info: 10621 ANGLES
Info: 5232 DIHEDRALS
Info: 327 IMPROPERS
Info: 121 CROSSTERMS
Info: 0 EXCLUSIONS
Info: 22087 RIGID BONDS
Info: 47174 DEGREES OF FREEDOM
Info: 8039 HYDROGEN GROUPS
Info: 4 ATOMS IN LARGEST HYDROGEN GROUP
Info: 8039 MIGRATION GROUPS
Info: 4 ATOMS IN LARGEST MIGRATION GROUP
Info: TOTAL MASS = 141020 amu
Info: TOTAL CHARGE = 1.76765e-06 e
Info: MASS DENSITY = 1.04052 g/cm^3
Info: ATOM DENSITY = 0.102584 atoms/A^3
Info: ADDED 31842 IMPLICIT EXCLUSIONS
Info: NONBONDED TABLE R-SQUARED SPACING: 0.0625
Info: NONBONDED TABLE SIZE: 769 POINTS
Info: REMOVING COM VELOCITY 0.0200136 0.0111084 -0.025752
Info: Updated CUDA force table with 4096 elements.
Info: Updated CUDA LJ table with 119 x 119 elements.
Info: Found 272 unique exclusion lists needing 848 bytes
ETITLE: TS BOND ANGLE DIHED IMPRP ELECT VDW BOUNDARY MISC KINETIC TOTAL TEMP POTENTIAL TOTAL3 TEMPAVG PRESSURE GPRESSURE VOLUME PRESSAVG GPRESSAVG
ENERGY: 0 413.0961 1063.3539 518.0864 65.8009 -81940.8067 6741.5240 0.0000 0.0000 20969.7866 -52169.1588 447.3853 -73138.9454 -52121.7048 447.3853 1027.0684 1057.4596 225055.5131 1027.0684 1057.4596
ENERGY: 40000 565.9884 1489.0349 596.2461 112.9100 -65650.1788 4288.0111 0.0000 0.0000 21083.0718 -37514.9165 449.8022 -58597.9883 -37467.0726 450.0208 25.4672 44.2136 271222.0620 13.7892 14.1235
ENERGY: 80000 507.9647 1497.8422 605.3626 103.5765 -65598.3492 4165.5274 0.0000 0.0000 21295.8940 -37422.1818 454.3427 -58718.0758 -37372.2051 450.5879 -258.5494 -232.3084 269852.2878 -7.9099 -8.0054
ENERGY: 120000 571.2517 1489.8057 590.7966 81.9386 -65652.4816 4147.1464 0.0000 0.0000 21094.2516 -37677.2910 450.0407 -58771.5426 -37629.1598 449.2443 -225.2418 -205.3046 271722.9545 -3.2515 -3.3359
ENERGY: 160000 554.7663 1481.4080 582.8570 99.9195 -65968.2039 4333.8814 0.0000 0.0000 20863.3157 -38052.0559 445.1138 -58915.3716 -37998.7397 449.0084 -142.7687 -116.3373 269021.3605 1.8430 1.7031
ENERGY: 200000 534.0894 1505.3302 606.1807 88.1889 -65604.9639 4228.5366 0.0000 0.0000 20922.1801 -37720.4579 446.3696 -58642.6380 -37647.5135 450.1949 131.1161 149.3850 271031.4807 -4.1834 -4.0543
