Info: SIMULATION PARAMETERS:
Info: TIMESTEP               2
Info: NUMBER OF STEPS        200000
Info: STEPS PER CYCLE        10
Info: PERIODIC CELL BASIS 1  58.4134 0 0
Info: PERIODIC CELL BASIS 2  0 60.2871 0
Info: PERIODIC CELL BASIS 3  0 0 60.409
Info: PERIODIC CELL CENTER   20.1501 2.35997 -11.2844
Info: WRAPPING ALL CLUSTERS AROUND PERIODIC BOUNDARIES ON OUTPUT.
Info: FIRST LDB TIMESTEP     50
Info: LAST LDB TIMESTEP     -1
Info: HOM BACKGROUND SCALING 1
Info: PME BACKGROUND SCALING 1
Info: MIN ATOMS PER PATCH    40
Info: INITIAL TEMPERATURE    450
Info: CENTER OF MASS MOVING INITIALLY? NO
Info: DIELECTRIC             1
Info: EXCLUDE                SCALED ONE-FOUR
Info: 1-4 ELECTROSTATICS SCALED BY 1
Info: MODIFIED 1-4 VDW PARAMETERS WILL BE USED
Info: DCD FILENAME           400k_6_mutata.dcd
Info: DCD FREQUENCY          2000
Info: DCD FIRST STEP         2000
Info: DCD FILE WILL CONTAIN UNIT CELL DATA
Info: XST FILENAME           400k_6_mutata.xst
Info: XST FREQUENCY          2000
Info: NO VELOCITY DCD OUTPUT
Info: NO FORCE DCD OUTPUT
Info: OUTPUT FILENAME        400k_6_mutata
Info: BINARY OUTPUT FILES WILL BE USED
Info: RESTART FILENAME       400k_6_mutata.restart
Info: RESTART FREQUENCY      100000
Info: BINARY RESTART FILES WILL BE USED
Info: SWITCHING ACTIVE
Info: SWITCHING ON           10
Info: SWITCHING OFF          12
Info: PAIRLIST DISTANCE      14
Info: PAIRLIST SHRINK RATE   0.01
Info: PAIRLIST GROW RATE     0.01
Info: PAIRLIST TRIGGER       0.3
Info: PAIRLISTS PER CYCLE    2
Info: PAIRLISTS ENABLED
Info: MARGIN                 0.495
Info: HYDROGEN GROUP CUTOFF  2.5
Info: PATCH DIMENSION        16.995
Info: ENERGY OUTPUT STEPS    2000
Info: CROSSTERM ENERGY INCLUDED IN DIHEDRAL
Info: TIMING OUTPUT STEPS    2000
Info: PRESSURE OUTPUT STEPS  2000
Info: LANGEVIN DYNAMICS ACTIVE
Info: LANGEVIN TEMPERATURE   450
Info: LANGEVIN USING BBK INTEGRATOR
Info: LANGEVIN DAMPING COEFFICIENT IS 5 INVERSE PS
Info: LANGEVIN DYNAMICS NOT APPLIED TO HYDROGENS
Info: LANGEVIN PISTON PRESSURE CONTROL ACTIVE
Info:        TARGET PRESSURE IS 1.01325 BAR
Info:     OSCILLATION PERIOD IS 200 FS
Info:             DECAY TIME IS 100 FS
Info:     PISTON TEMPERATURE IS 450 K
Info:       PRESSURE CONTROL IS GROUP-BASED
Info:    INITIAL STRAIN RATE IS 4.38763e-05 4.38763e-05 4.38763e-05
Info:       CELL FLUCTUATION IS ISOTROPIC
Info: PARTICLE MESH EWALD (PME) ACTIVE
Info: PME TOLERANCE               1e-06
Info: PME EWALD COEFFICIENT       0.257952
Info: PME INTERPOLATION ORDER     4
Info: PME GRID DIMENSIONS         60 64 64
Info: PME MAXIMUM GRID SPACING    1
Info: FULL ELECTROSTATIC EVALUATION FREQUENCY      2
Info: USING VERLET I (r-RESPA) MTS SCHEME.
Info: C1 SPLITTING OF LONG RANGE ELECTROSTATICS
Info: PLACING ATOMS IN PATCHES BY HYDROGEN GROUPS
Info: RIGID BONDS TO HYDROGEN : ALL
Info:         ERROR TOLERANCE : 1e-08
Info:          MAX ITERATIONS : 100
Info: RIGID WATER USING SETTLE ALGORITHM
Info: RANDOM NUMBER SEED     345879
Info: USE HYDROGEN BONDS?    NO
Info: COORDINATE PDB         ../../input_mutant_1/2PYP_mutata1_ionized.pdb
Info: STRUCTURE FILE         ../../input_mutant_1/2PYP_mutata1_ionized.psf
Info: PARAMETER file: CHARMM format!
Info: PARAMETERS             ../../input_mutant_1/par_all27_prot_lipid.inp
Info: USING ARITHMETIC MEAN TO COMBINE L-J SIGMA PARAMETERS
Info: BINARY COORDINATES     ../../input_mutant_1/2PYP_mutata1_final.coor
Info: SUMMARY OF PARAMETERS:
Info: 180 BONDS
Info: 447 ANGLES
Info: 566 DIHEDRAL
Info: 46 IMPROPER
Info: 6 CROSSTERM
Info: 119 VDW
Info: 0 VDW_PAIRS
Info: 0 NBTHOLE_PAIRS
Info: STRUCTURE SUMMARY:
Info: 21801 ATOMS
Info: 15220 BONDS
Info: 10230 ANGLES
Info: 5308 DIHEDRALS
Info: 323 IMPROPERS
Info: 121 CROSSTERMS
Info: 0 EXCLUSIONS
Info: 20790 RIGID BONDS
Info: 44613 DEGREES OF FREEDOM
Info: 7613 HYDROGEN GROUPS
Info: 4 ATOMS IN LARGEST HYDROGEN GROUP
Info: 7613 MIGRATION GROUPS
Info: 4 ATOMS IN LARGEST MIGRATION GROUP
Info: TOTAL MASS = 133337 amu
Info: TOTAL CHARGE = 1.7453e-06 e
Info: MASS DENSITY = 1.04081 g/cm^3
Info: ATOM DENSITY = 0.10248 atoms/A^3
Info: ADDED 30670 IMPLICIT EXCLUSIONS
Info: NONBONDED TABLE R-SQUARED SPACING: 0.0625
Info: NONBONDED TABLE SIZE: 769 POINTS
Info: REMOVING COM VELOCITY 0.112457 -0.00144055 -0.0944962
Info: Updated CUDA force table with 4096 elements.
Info: Updated CUDA LJ table with 119 x 119 elements.
Info: Found 271 unique exclusion lists needing 840 bytes
ETITLE: TS BOND ANGLE DIHED IMPRP ELECT VDW BOUNDARY MISC KINETIC TOTAL TEMP POTENTIAL TOTAL3 TEMPAVG PRESSURE GPRESSURE VOLUME PRESSAVG GPRESSAVG
ENERGY: 0 382.7391 1050.9087 501.0889 61.6262 -77382.6418 6271.0631 0.0000 0.0000 19945.3834 -49169.8324 449.9573 -69115.2158 -49125.5432 449.9573 765.5697 798.2465 212734.8654 765.5697 798.2465
ENERGY: 40000 567.2331 1476.3401 649.4392 107.1610 -62090.9970 3983.8408 0.0000 0.0000 19973.2243 -35333.7585 450.5854 -55306.9828 -35284.8460 448.4634 -177.8283 -154.5726 254638.3470 1.4845 1.5539
ENERGY: 80000 520.0123 1474.5771 596.9922 84.5264 -62519.5472 3987.4938 0.0000 0.0000 19884.1068 -35971.8386 448.5750 -55855.9454 -35907.8568 449.2358 22.2625 56.2795 252356.3222 6.8834 6.6954
ENERGY: 120000 531.9201 1544.4712 619.9802 90.4526 -62897.0683 4097.7172 0.0000 0.0000 19746.0348 -36266.4922 445.4601 -56012.5270 -36209.6836 447.1761 196.9630 221.7512 251467.2412 4.5321 4.6006
ENERGY: 160000 570.2396 1475.8620 625.0022 92.6965 -62134.4231 3809.7604 0.0000 0.0000 19812.1851 -35748.6773 446.9525 -55560.8624 -35701.1824 448.2955 -253.8237 -230.1010 254049.8068 -3.0099 -3.0742
ENERGY: 200000 571.3610 1483.6097 607.3032 90.6420 -62713.9825 4207.2765 0.0000 0.0000 20005.9568 -35747.8332 451.3238 -55753.7901 -35697.2955 449.1893 0.6970 26.1809 254251.6265 1.4814 1.4754
