Info: SIMULATION PARAMETERS:
Info: TIMESTEP               2
Info: NUMBER OF STEPS        2000000
Info: STEPS PER CYCLE        10
Info: PERIODIC CELL BASIS 1  58.4345 0 0
Info: PERIODIC CELL BASIS 2  0 59.7796 0
Info: PERIODIC CELL BASIS 3  0 0 60.2479
Info: PERIODIC CELL CENTER   20.122 2.05778 -11.1904
Info: WRAPPING ALL CLUSTERS AROUND PERIODIC BOUNDARIES ON OUTPUT.
Info: FIRST LDB TIMESTEP     50
Info: LAST LDB TIMESTEP     -1
Info: HOM BACKGROUND SCALING 1
Info: PME BACKGROUND SCALING 1
Info: MIN ATOMS PER PATCH    40
Info: INITIAL TEMPERATURE    400
Info: CENTER OF MASS MOVING INITIALLY? NO
Info: DIELECTRIC             1
Info: EXCLUDE                SCALED ONE-FOUR
Info: 1-4 ELECTROSTATICS SCALED BY 1
Info: MODIFIED 1-4 VDW PARAMETERS WILL BE USED
Info: DCD FILENAME           400k_4_mutata4_4ns.dcd
Info: DCD FREQUENCY          2000
Info: DCD FIRST STEP         2000
Info: DCD FILE WILL CONTAIN UNIT CELL DATA
Info: XST FILENAME           400k_4_mutata4_4ns.xst
Info: XST FREQUENCY          2000
Info: NO VELOCITY DCD OUTPUT
Info: NO FORCE DCD OUTPUT
Info: OUTPUT FILENAME        400k_4_mutata4_4ns
Info: BINARY OUTPUT FILES WILL BE USED
Info: RESTART FILENAME       400k_4_mutata4_4ns.restart
Info: RESTART FREQUENCY      200000
Info: BINARY RESTART FILES WILL BE USED
Info: SWITCHING ACTIVE
Info: SWITCHING ON           10
Info: SWITCHING OFF          12
Info: PAIRLIST DISTANCE      14
Info: PAIRLIST SHRINK RATE   0.01
Info: PAIRLIST GROW RATE     0.01
Info: PAIRLIST TRIGGER       0.3
Info: PAIRLISTS PER CYCLE    2
Info: PAIRLISTS ENABLED
Info: MARGIN                 0.495
Info: HYDROGEN GROUP CUTOFF  2.5
Info: PATCH DIMENSION        16.995
Info: ENERGY OUTPUT STEPS    2000
Info: CROSSTERM ENERGY INCLUDED IN DIHEDRAL
Info: TIMING OUTPUT STEPS    2000
Info: PRESSURE OUTPUT STEPS  2000
Info: LANGEVIN DYNAMICS ACTIVE
Info: LANGEVIN TEMPERATURE   400
Info: LANGEVIN USING BBK INTEGRATOR
Info: LANGEVIN DAMPING COEFFICIENT IS 5 INVERSE PS
Info: LANGEVIN DYNAMICS NOT APPLIED TO HYDROGENS
Info: LANGEVIN PISTON PRESSURE CONTROL ACTIVE
Info:        TARGET PRESSURE IS 1.01325 BAR
Info:     OSCILLATION PERIOD IS 200 FS
Info:             DECAY TIME IS 100 FS
Info:     PISTON TEMPERATURE IS 400 K
Info:       PRESSURE CONTROL IS GROUP-BASED
Info:    INITIAL STRAIN RATE IS -7.53808e-06 -7.53808e-06 -7.53808e-06
Info:       CELL FLUCTUATION IS ISOTROPIC
Info: PARTICLE MESH EWALD (PME) ACTIVE
Info: PME TOLERANCE               1e-06
Info: PME EWALD COEFFICIENT       0.257952
Info: PME INTERPOLATION ORDER     4
Info: PME GRID DIMENSIONS         60 60 64
Info: PME MAXIMUM GRID SPACING    1
Info: FULL ELECTROSTATIC EVALUATION FREQUENCY      2
Info: USING VERLET I (r-RESPA) MTS SCHEME.
Info: C1 SPLITTING OF LONG RANGE ELECTROSTATICS
Info: PLACING ATOMS IN PATCHES BY HYDROGEN GROUPS
Info: RIGID BONDS TO HYDROGEN : ALL
Info:         ERROR TOLERANCE : 1e-08
Info:          MAX ITERATIONS : 100
Info: RIGID WATER USING SETTLE ALGORITHM
Info: RANDOM NUMBER SEED     869752
Info: USE HYDROGEN BONDS?    NO
Info: COORDINATE PDB         ../../input_mutant_4/2PYP_mutata_ionized.pdb
Info: STRUCTURE FILE         ../../input_mutant_4/2PYP_mutata_ionized.psf
Info: PARAMETER file: CHARMM format!
Info: PARAMETERS             ../../input_mutant_4/par_all27_prot_lipid.inp
Info: USING ARITHMETIC MEAN TO COMBINE L-J SIGMA PARAMETERS
Info: BINARY COORDINATES     ../../input_mutant_4/2PYP_mutata_final.coor
Info: SUMMARY OF PARAMETERS:
Info: 180 BONDS
Info: 447 ANGLES
Info: 566 DIHEDRAL
Info: 46 IMPROPER
Info: 6 CROSSTERM
Info: 119 VDW
Info: 0 VDW_PAIRS
Info: 0 NBTHOLE_PAIRS
Info: STRUCTURE SUMMARY:
Info: 21514 ATOMS
Info: 15012 BONDS
Info: 10062 ANGLES
Info: 5172 DIHEDRALS
Info: 325 IMPROPERS
Info: 121 CROSSTERMS
Info: 0 EXCLUSIONS
Info: 20520 RIGID BONDS
Info: 44022 DEGREES OF FREEDOM
Info: 7516 HYDROGEN GROUPS
Info: 4 ATOMS IN LARGEST HYDROGEN GROUP
Info: 7516 MIGRATION GROUPS
Info: 4 ATOMS IN LARGEST MIGRATION GROUP
Info: TOTAL MASS = 131628 amu
Info: TOTAL CHARGE = 1.73785e-06 e
Info: MASS DENSITY = 1.03859 g/cm^3
Info: ATOM DENSITY = 0.102225 atoms/A^3
Info: ADDED 30163 IMPLICIT EXCLUSIONS
Info: NONBONDED TABLE R-SQUARED SPACING: 0.0625
Info: NONBONDED TABLE SIZE: 769 POINTS
Info: REMOVING COM VELOCITY 0.00482069 -0.0128084 -0.0554695
Info: Updated CUDA force table with 4096 elements.
Info: Updated CUDA LJ table with 119 x 119 elements.
Info: Found 270 unique exclusion lists needing 824 bytes
ETITLE: TS BOND ANGLE DIHED IMPRP ELECT VDW BOUNDARY MISC KINETIC TOTAL TEMP POTENTIAL TOTAL3 TEMPAVG PRESSURE GPRESSURE VOLUME PRESSAVG GPRESSAVG
ENERGY: 0 380.7298 1019.9602 491.6640 68.8260 -75948.0430 6241.3129 0.0000 0.0000 17381.0471 -50364.5029 397.3714 -67745.5501 -50321.6766 397.3714 719.9743 750.8878 210457.3555 719.9743 750.8878
ENERGY: 400000 502.4255 1343.1159 542.0187 90.7106 -66506.7451 4860.8697 0.0000 0.0000 17503.0394 -41664.5653 400.1604 -59167.6047 -41619.0618 399.5494 -35.0246 6.8415 234175.0035 5.6764 5.6093
ENERGY: 800000 520.1373 1287.2802 525.0299 89.1296 -65950.2958 4497.6497 0.0000 0.0000 17519.2302 -41511.8389 400.5305 -59031.0691 -41452.1121 398.2787 -417.3647 -378.7177 236683.1858 -0.2596 -0.3017
ENERGY: 1200000 500.5686 1334.5577 519.6150 89.4124 -65804.6195 4547.5080 0.0000 0.0000 17378.6045 -41434.3534 397.3155 -58812.9579 -41396.8931 399.4266 -94.9165 -67.6897 234494.4321 2.8726 2.7445
ENERGY: 1600000 478.4392 1327.5494 548.6487 85.5620 -65914.5937 4470.7596 0.0000 0.0000 17484.8161 -41518.8188 399.7438 -59003.6349 -41468.4141 399.3948 -324.6691 -306.7453 233135.0882 0.8595 0.8465
ENERGY: 2000000 495.0104 1339.0256 518.4193 81.3209 -66016.9584 4655.6664 0.0000 0.0000 17581.4136 -41346.1023 401.9522 -58927.5158 -41300.9517 398.8533 -138.6787 -114.3553 234298.1923 3.8922 3.7558
