Info: SIMULATION PARAMETERS:
Info: TIMESTEP               2
Info: NUMBER OF STEPS        2000000
Info: STEPS PER CYCLE        10
Info: PERIODIC CELL BASIS 1  57.1156 0 0
Info: PERIODIC CELL BASIS 2  0 59.7148 0
Info: PERIODIC CELL BASIS 3  0 0 60.1826
Info: PERIODIC CELL CENTER   19.531 1.9405 -11.2175
Info: WRAPPING ALL CLUSTERS AROUND PERIODIC BOUNDARIES ON OUTPUT.
Info: FIRST LDB TIMESTEP     50
Info: LAST LDB TIMESTEP     -1
Info: HOM BACKGROUND SCALING 1
Info: PME BACKGROUND SCALING 1
Info: MIN ATOMS PER PATCH    40
Info: INITIAL TEMPERATURE    400
Info: CENTER OF MASS MOVING INITIALLY? NO
Info: DIELECTRIC             1
Info: EXCLUDE                SCALED ONE-FOUR
Info: 1-4 ELECTROSTATICS SCALED BY 1
Info: MODIFIED 1-4 VDW PARAMETERS WILL BE USED
Info: DCD FILENAME           400k_1_mutata5_4ns.dcd
Info: DCD FREQUENCY          2000
Info: DCD FIRST STEP         2000
Info: DCD FILE WILL CONTAIN UNIT CELL DATA
Info: XST FILENAME           400k_1_mutata5_4ns.xst
Info: XST FREQUENCY          2000
Info: NO VELOCITY DCD OUTPUT
Info: NO FORCE DCD OUTPUT
Info: OUTPUT FILENAME        400k_1_mutata5_4ns
Info: BINARY OUTPUT FILES WILL BE USED
Info: RESTART FILENAME       400k_1_mutata5_4ns.restart
Info: RESTART FREQUENCY      200000
Info: BINARY RESTART FILES WILL BE USED
Info: SWITCHING ACTIVE
Info: SWITCHING ON           10
Info: SWITCHING OFF          12
Info: PAIRLIST DISTANCE      14
Info: PAIRLIST SHRINK RATE   0.01
Info: PAIRLIST GROW RATE     0.01
Info: PAIRLIST TRIGGER       0.3
Info: PAIRLISTS PER CYCLE    2
Info: PAIRLISTS ENABLED
Info: MARGIN                 0.495
Info: HYDROGEN GROUP CUTOFF  2.5
Info: PATCH DIMENSION        16.995
Info: ENERGY OUTPUT STEPS    2000
Info: CROSSTERM ENERGY INCLUDED IN DIHEDRAL
Info: TIMING OUTPUT STEPS    2000
Info: PRESSURE OUTPUT STEPS  2000
Info: LANGEVIN DYNAMICS ACTIVE
Info: LANGEVIN TEMPERATURE   400
Info: LANGEVIN USING BBK INTEGRATOR
Info: LANGEVIN DAMPING COEFFICIENT IS 5 INVERSE PS
Info: LANGEVIN DYNAMICS NOT APPLIED TO HYDROGENS
Info: LANGEVIN PISTON PRESSURE CONTROL ACTIVE
Info:        TARGET PRESSURE IS 1.01325 BAR
Info:     OSCILLATION PERIOD IS 200 FS
Info:             DECAY TIME IS 100 FS
Info:     PISTON TEMPERATURE IS 400 K
Info:       PRESSURE CONTROL IS GROUP-BASED
Info:    INITIAL STRAIN RATE IS -6.23963e-05 -6.23963e-05 -6.23963e-05
Info:       CELL FLUCTUATION IS ISOTROPIC
Info: PARTICLE MESH EWALD (PME) ACTIVE
Info: PME TOLERANCE               1e-06
Info: PME EWALD COEFFICIENT       0.257952
Info: PME INTERPOLATION ORDER     4
Info: PME GRID DIMENSIONS         60 60 64
Info: PME MAXIMUM GRID SPACING    1
Info: FULL ELECTROSTATIC EVALUATION FREQUENCY      2
Info: USING VERLET I (r-RESPA) MTS SCHEME.
Info: C1 SPLITTING OF LONG RANGE ELECTROSTATICS
Info: PLACING ATOMS IN PATCHES BY HYDROGEN GROUPS
Info: RIGID BONDS TO HYDROGEN : ALL
Info:         ERROR TOLERANCE : 1e-08
Info:          MAX ITERATIONS : 100
Info: RIGID WATER USING SETTLE ALGORITHM
Info: RANDOM NUMBER SEED     5793820
Info: USE HYDROGEN BONDS?    NO
Info: COORDINATE PDB         ../../input_mutant_5/2PYP_mutata_ionized.pdb
Info: STRUCTURE FILE         ../../input_mutant_5/2PYP_mutata_ionized.psf
Info: PARAMETER file: CHARMM format!
Info: PARAMETERS             ../../input_mutant_5/par_all27_prot_lipid.inp
Info: USING ARITHMETIC MEAN TO COMBINE L-J SIGMA PARAMETERS
Info: BINARY COORDINATES     ../../input_mutant_5/2PYP_mutata_final.coor
Info: SUMMARY OF PARAMETERS:
Info: 180 BONDS
Info: 447 ANGLES
Info: 566 DIHEDRAL
Info: 46 IMPROPER
Info: 6 CROSSTERM
Info: 119 VDW
Info: 0 VDW_PAIRS
Info: 0 NBTHOLE_PAIRS
Info: STRUCTURE SUMMARY:
Info: 21051 ATOMS
Info: 14696 BONDS
Info: 9884 ANGLES
Info: 5127 DIHEDRALS
Info: 324 IMPROPERS
Info: 121 CROSSTERMS
Info: 0 EXCLUSIONS
Info: 20065 RIGID BONDS
Info: 43088 DEGREES OF FREEDOM
Info: 7359 HYDROGEN GROUPS
Info: 4 ATOMS IN LARGEST HYDROGEN GROUP
Info: 7359 MIGRATION GROUPS
Info: 4 ATOMS IN LARGEST MIGRATION GROUP
Info: TOTAL MASS = 128849 amu
Info: TOTAL CHARGE = 1.71177e-06 e
Info: MASS DENSITY = 1.04239 g/cm^3
Info: ATOM DENSITY = 0.102557 atoms/A^3
Info: ADDED 29627 IMPLICIT EXCLUSIONS
Info: NONBONDED TABLE R-SQUARED SPACING: 0.0625
Info: NONBONDED TABLE SIZE: 769 POINTS
Info: REMOVING COM VELOCITY -0.0379462 0.0939909 0.0738341
Info: Updated CUDA force table with 4096 elements.
Info: Updated CUDA LJ table with 119 x 119 elements.
Info: Found 272 unique exclusion lists needing 828 bytes
ETITLE: TS BOND ANGLE DIHED IMPRP ELECT VDW BOUNDARY MISC KINETIC TOTAL TEMP POTENTIAL TOTAL3 TEMPAVG PRESSURE GPRESSURE VOLUME PRESSAVG GPRESSAVG
ENERGY: 0 378.2715 1030.1903 460.7188 71.8779 -74458.5401 6253.0937 0.0000 0.0000 16997.8439 -49266.5441 397.0342 -66264.3880 -49224.3397 397.0342 846.6835 876.9375 205261.6048 846.6835 876.9375
ENERGY: 400000 486.8197 1325.9516 542.3278 79.5318 -64838.4787 4824.9546 0.0000 0.0000 16862.2479 -40716.6452 393.8669 -57578.8931 -40676.1657 399.4819 333.4423 351.6319 228513.9396 3.9591 3.7814
ENERGY: 800000 471.6405 1276.1746 524.5772 88.6097 -64759.2353 4524.6245 0.0000 0.0000 17106.2385 -40767.3704 399.5660 -57873.6088 -40715.1950 399.2929 -123.8728 -96.3306 228566.3762 1.2094 1.5520
ENERGY: 1200000 515.8111 1269.1116 549.0663 82.7756 -64856.4062 4621.2867 0.0000 0.0000 17071.2213 -40747.1335 398.7481 -57818.3549 -40681.8724 399.3216 -82.8774 -52.6355 228689.0760 5.3080 5.3688
ENERGY: 1600000 497.9367 1298.4680 545.4643 79.8078 -64474.9205 4339.9128 0.0000 0.0000 17033.4885 -40679.8423 397.8668 -57713.3308 -40624.6462 399.2720 -431.4655 -400.1697 228811.2264 -0.5458 -0.4342
ENERGY: 2000000 469.9635 1310.8850 548.7874 100.1365 -64601.5502 4552.2471 0.0000 0.0000 16987.7332 -40631.7976 396.7980 -57619.5308 -40593.7800 397.7198 190.8400 227.9176 228193.1930 -4.2301 -4.2098
