Info: SIMULATION PARAMETERS:
Info: TIMESTEP               2
Info: NUMBER OF STEPS        200000
Info: STEPS PER CYCLE        10
Info: PERIODIC CELL BASIS 1  58.4134 0 0
Info: PERIODIC CELL BASIS 2  0 60.2871 0
Info: PERIODIC CELL BASIS 3  0 0 60.409
Info: PERIODIC CELL CENTER   20.1501 2.35997 -11.2844
Info: WRAPPING ALL CLUSTERS AROUND PERIODIC BOUNDARIES ON OUTPUT.
Info: FIRST LDB TIMESTEP     50
Info: LAST LDB TIMESTEP     -1
Info: HOM BACKGROUND SCALING 1
Info: PME BACKGROUND SCALING 1
Info: MIN ATOMS PER PATCH    40
Info: INITIAL TEMPERATURE    400
Info: CENTER OF MASS MOVING INITIALLY? NO
Info: DIELECTRIC             1
Info: EXCLUDE                SCALED ONE-FOUR
Info: 1-4 ELECTROSTATICS SCALED BY 1
Info: MODIFIED 1-4 VDW PARAMETERS WILL BE USED
Info: DCD FILENAME           400k_6_mutata.dcd
Info: DCD FREQUENCY          2000
Info: DCD FIRST STEP         2000
Info: DCD FILE WILL CONTAIN UNIT CELL DATA
Info: XST FILENAME           400k_6_mutata.xst
Info: XST FREQUENCY          2000
Info: NO VELOCITY DCD OUTPUT
Info: NO FORCE DCD OUTPUT
Info: OUTPUT FILENAME        400k_6_mutata
Info: BINARY OUTPUT FILES WILL BE USED
Info: RESTART FILENAME       400k_6_mutata.restart
Info: RESTART FREQUENCY      100000
Info: BINARY RESTART FILES WILL BE USED
Info: SWITCHING ACTIVE
Info: SWITCHING ON           10
Info: SWITCHING OFF          12
Info: PAIRLIST DISTANCE      14
Info: PAIRLIST SHRINK RATE   0.01
Info: PAIRLIST GROW RATE     0.01
Info: PAIRLIST TRIGGER       0.3
Info: PAIRLISTS PER CYCLE    2
Info: PAIRLISTS ENABLED
Info: MARGIN                 0.495
Info: HYDROGEN GROUP CUTOFF  2.5
Info: PATCH DIMENSION        16.995
Info: ENERGY OUTPUT STEPS    2000
Info: CROSSTERM ENERGY INCLUDED IN DIHEDRAL
Info: TIMING OUTPUT STEPS    2000
Info: PRESSURE OUTPUT STEPS  2000
Info: LANGEVIN DYNAMICS ACTIVE
Info: LANGEVIN TEMPERATURE   400
Info: LANGEVIN USING BBK INTEGRATOR
Info: LANGEVIN DAMPING COEFFICIENT IS 5 INVERSE PS
Info: LANGEVIN DYNAMICS NOT APPLIED TO HYDROGENS
Info: LANGEVIN PISTON PRESSURE CONTROL ACTIVE
Info:        TARGET PRESSURE IS 1.01325 BAR
Info:     OSCILLATION PERIOD IS 200 FS
Info:             DECAY TIME IS 100 FS
Info:     PISTON TEMPERATURE IS 400 K
Info:       PRESSURE CONTROL IS GROUP-BASED
Info:    INITIAL STRAIN RATE IS 4.38763e-05 4.38763e-05 4.38763e-05
Info:       CELL FLUCTUATION IS ISOTROPIC
Info: PARTICLE MESH EWALD (PME) ACTIVE
Info: PME TOLERANCE               1e-06
Info: PME EWALD COEFFICIENT       0.257952
Info: PME INTERPOLATION ORDER     4
Info: PME GRID DIMENSIONS         60 64 64
Info: PME MAXIMUM GRID SPACING    1
Info: FULL ELECTROSTATIC EVALUATION FREQUENCY      2
Info: USING VERLET I (r-RESPA) MTS SCHEME.
Info: C1 SPLITTING OF LONG RANGE ELECTROSTATICS
Info: PLACING ATOMS IN PATCHES BY HYDROGEN GROUPS
Info: RIGID BONDS TO HYDROGEN : ALL
Info:         ERROR TOLERANCE : 1e-08
Info:          MAX ITERATIONS : 100
Info: RIGID WATER USING SETTLE ALGORITHM
Info: RANDOM NUMBER SEED     10203040
Info: USE HYDROGEN BONDS?    NO
Info: COORDINATE PDB         ../../input_mutant_1/2PYP_mutata1_ionized.pdb
Info: STRUCTURE FILE         ../../input_mutant_1/2PYP_mutata1_ionized.psf
Info: PARAMETER file: CHARMM format!
Info: PARAMETERS             ../../input_mutant_1/par_all27_prot_lipid.inp
Info: USING ARITHMETIC MEAN TO COMBINE L-J SIGMA PARAMETERS
Info: BINARY COORDINATES     ../../input_mutant_1/2PYP_mutata1_final.coor
Info: SUMMARY OF PARAMETERS:
Info: 180 BONDS
Info: 447 ANGLES
Info: 566 DIHEDRAL
Info: 46 IMPROPER
Info: 6 CROSSTERM
Info: 119 VDW
Info: 0 VDW_PAIRS
Info: 0 NBTHOLE_PAIRS
Info: STRUCTURE SUMMARY:
Info: 21801 ATOMS
Info: 15220 BONDS
Info: 10230 ANGLES
Info: 5308 DIHEDRALS
Info: 323 IMPROPERS
Info: 121 CROSSTERMS
Info: 0 EXCLUSIONS
Info: 20790 RIGID BONDS
Info: 44613 DEGREES OF FREEDOM
Info: 7613 HYDROGEN GROUPS
Info: 4 ATOMS IN LARGEST HYDROGEN GROUP
Info: 7613 MIGRATION GROUPS
Info: 4 ATOMS IN LARGEST MIGRATION GROUP
Info: TOTAL MASS = 133337 amu
Info: TOTAL CHARGE = 1.7453e-06 e
Info: MASS DENSITY = 1.04081 g/cm^3
Info: ATOM DENSITY = 0.10248 atoms/A^3
Info: ADDED 30670 IMPLICIT EXCLUSIONS
Info: NONBONDED TABLE R-SQUARED SPACING: 0.0625
Info: NONBONDED TABLE SIZE: 769 POINTS
Info: REMOVING COM VELOCITY 0.00879589 0.0275639 0.0332776
Info: Updated CUDA force table with 4096 elements.
Info: Updated CUDA LJ table with 119 x 119 elements.
Info: Found 271 unique exclusion lists needing 840 bytes
ETITLE: TS BOND ANGLE DIHED IMPRP ELECT VDW BOUNDARY MISC KINETIC TOTAL TEMP POTENTIAL TOTAL3 TEMPAVG PRESSURE GPRESSURE VOLUME PRESSAVG GPRESSAVG
ENERGY: 0 382.7391 1050.9087 501.0889 61.6262 -77382.6418 6271.0631 0.0000 0.0000 17666.4566 -51448.7592 398.5460 -69115.2158 -51405.7350 398.5460 537.1834 568.9324 212734.8654 537.1834 568.9324
ENERGY: 40000 510.4677 1374.4442 578.0996 92.4905 -67796.5839 4847.9920 0.0000 0.0000 17731.9545 -42661.1354 400.0236 -60393.0899 -42614.2152 398.2770 183.3080 219.3707 235563.0772 0.7136 0.6711
ENERGY: 80000 504.8623 1335.9508 596.5723 80.5746 -67464.3806 4593.0360 0.0000 0.0000 17729.6890 -42623.6954 399.9724 -60353.3845 -42554.9422 398.2090 -290.8236 -262.1084 236702.2305 -1.2156 -1.0596
ENERGY: 120000 523.9197 1396.8613 558.0019 88.3882 -67377.9278 4713.8010 0.0000 0.0000 17475.2674 -42621.6884 394.2328 -60096.9558 -42568.3506 399.1860 -105.0006 -84.3587 237550.3295 2.8097 2.7341
ENERGY: 160000 458.0691 1397.3424 581.1230 76.6269 -67408.2180 4590.3579 0.0000 0.0000 17772.1954 -42532.5033 400.9314 -60304.6987 -42484.9911 398.0123 -136.3123 -121.9270 236842.9399 -4.3066 -4.3835
ENERGY: 200000 503.1134 1400.3917 592.0599 76.1689 -67240.3184 4724.6271 0.0000 0.0000 17607.0921 -42336.8653 397.2067 -59943.9574 -42291.5519 399.8894 -45.2432 -22.7807 237507.4775 -4.5953 -4.4053
