Info: SIMULATION PARAMETERS:
Info: TIMESTEP               2
Info: NUMBER OF STEPS        2000000
Info: STEPS PER CYCLE        10
Info: PERIODIC CELL BASIS 1  55.2689 0 0
Info: PERIODIC CELL BASIS 2  0 57.8115 0
Info: PERIODIC CELL BASIS 3  0 0 64.5138
Info: PERIODIC CELL CENTER   19.4469 2.11497 -11.3022
Info: WRAPPING ALL CLUSTERS AROUND PERIODIC BOUNDARIES ON OUTPUT.
Info: FIRST LDB TIMESTEP     50
Info: LAST LDB TIMESTEP     -1
Info: HOM BACKGROUND SCALING 1
Info: PME BACKGROUND SCALING 1
Info: MIN ATOMS PER PATCH    40
Info: INITIAL TEMPERATURE    400
Info: CENTER OF MASS MOVING INITIALLY? NO
Info: DIELECTRIC             1
Info: EXCLUDE                SCALED ONE-FOUR
Info: 1-4 ELECTROSTATICS SCALED BY 1
Info: MODIFIED 1-4 VDW PARAMETERS WILL BE USED
Info: DCD FILENAME           400k_4_mutata3_4ns.dcd
Info: DCD FREQUENCY          2000
Info: DCD FIRST STEP         2000
Info: DCD FILE WILL CONTAIN UNIT CELL DATA
Info: XST FILENAME           400k_4_mutata3_4ns.xst
Info: XST FREQUENCY          2000
Info: NO VELOCITY DCD OUTPUT
Info: NO FORCE DCD OUTPUT
Info: OUTPUT FILENAME        400k_4_mutata3_4ns
Info: BINARY OUTPUT FILES WILL BE USED
Info: RESTART FILENAME       400k_4_mutata3_4ns.restart
Info: RESTART FREQUENCY      200000
Info: BINARY RESTART FILES WILL BE USED
Info: SWITCHING ACTIVE
Info: SWITCHING ON           10
Info: SWITCHING OFF          12
Info: PAIRLIST DISTANCE      14
Info: PAIRLIST SHRINK RATE   0.01
Info: PAIRLIST GROW RATE     0.01
Info: PAIRLIST TRIGGER       0.3
Info: PAIRLISTS PER CYCLE    2
Info: PAIRLISTS ENABLED
Info: MARGIN                 0.495
Info: HYDROGEN GROUP CUTOFF  2.5
Info: PATCH DIMENSION        16.995
Info: ENERGY OUTPUT STEPS    2000
Info: CROSSTERM ENERGY INCLUDED IN DIHEDRAL
Info: TIMING OUTPUT STEPS    2000
Info: PRESSURE OUTPUT STEPS  2000
Info: LANGEVIN DYNAMICS ACTIVE
Info: LANGEVIN TEMPERATURE   400
Info: LANGEVIN USING BBK INTEGRATOR
Info: LANGEVIN DAMPING COEFFICIENT IS 5 INVERSE PS
Info: LANGEVIN DYNAMICS NOT APPLIED TO HYDROGENS
Info: LANGEVIN PISTON PRESSURE CONTROL ACTIVE
Info:        TARGET PRESSURE IS 1.01325 BAR
Info:     OSCILLATION PERIOD IS 200 FS
Info:             DECAY TIME IS 100 FS
Info:     PISTON TEMPERATURE IS 400 K
Info:       PRESSURE CONTROL IS GROUP-BASED
Info:    INITIAL STRAIN RATE IS 2.85127e-05 2.85127e-05 2.85127e-05
Info:       CELL FLUCTUATION IS ISOTROPIC
Info: PARTICLE MESH EWALD (PME) ACTIVE
Info: PME TOLERANCE               1e-06
Info: PME EWALD COEFFICIENT       0.257952
Info: PME INTERPOLATION ORDER     4
Info: PME GRID DIMENSIONS         56 60 72
Info: PME MAXIMUM GRID SPACING    1
Info: FULL ELECTROSTATIC EVALUATION FREQUENCY      2
Info: USING VERLET I (r-RESPA) MTS SCHEME.
Info: C1 SPLITTING OF LONG RANGE ELECTROSTATICS
Info: PLACING ATOMS IN PATCHES BY HYDROGEN GROUPS
Info: RIGID BONDS TO HYDROGEN : ALL
Info:         ERROR TOLERANCE : 1e-08
Info:          MAX ITERATIONS : 100
Info: RIGID WATER USING SETTLE ALGORITHM
Info: RANDOM NUMBER SEED     430998
Info: USE HYDROGEN BONDS?    NO
Info: COORDINATE PDB         ../../input_mutant_3/2PYP_mutata5_ionized.pdb
Info: STRUCTURE FILE         ../../input_mutant_3/2PYP_mutata5_ionized.psf
Info: PARAMETER file: CHARMM format!
Info: PARAMETERS             ../../input_mutant_3/par_all27_prot_lipid.inp
Info: USING ARITHMETIC MEAN TO COMBINE L-J SIGMA PARAMETERS
Info: BINARY COORDINATES     ../../input_mutant_3/2PYP_mutata5_final.coor
Info: SUMMARY OF PARAMETERS:
Info: 180 BONDS
Info: 447 ANGLES
Info: 566 DIHEDRAL
Info: 46 IMPROPER
Info: 6 CROSSTERM
Info: 119 VDW
Info: 0 VDW_PAIRS
Info: 0 NBTHOLE_PAIRS
Info: STRUCTURE SUMMARY:
Info: 21124 ATOMS
Info: 14751 BONDS
Info: 9928 ANGLES
Info: 5164 DIHEDRALS
Info: 321 IMPROPERS
Info: 121 CROSSTERMS
Info: 0 EXCLUSIONS
Info: 20132 RIGID BONDS
Info: 43240 DEGREES OF FREEDOM
Info: 7385 HYDROGEN GROUPS
Info: 4 ATOMS IN LARGEST HYDROGEN GROUP
Info: 7385 MIGRATION GROUPS
Info: 4 ATOMS IN LARGEST MIGRATION GROUP
Info: TOTAL MASS = 129277 amu
Info: TOTAL CHARGE = 1.72667e-06 e
Info: MASS DENSITY = 1.04144 g/cm^3
Info: ATOM DENSITY = 0.102477 atoms/A^3
Info: ADDED 29760 IMPLICIT EXCLUSIONS
Info: NONBONDED TABLE R-SQUARED SPACING: 0.0625
Info: NONBONDED TABLE SIZE: 769 POINTS
Info: REMOVING COM VELOCITY 0.0345801 -0.0173472 -0.0142423
Info: Updated CUDA force table with 4096 elements.
Info: Updated CUDA LJ table with 119 x 119 elements.
Info: Found 272 unique exclusion lists needing 836 bytes
ETITLE: TS BOND ANGLE DIHED IMPRP ELECT VDW BOUNDARY MISC KINETIC TOTAL TEMP POTENTIAL TOTAL3 TEMPAVG PRESSURE GPRESSURE VOLUME PRESSAVG GPRESSAVG
ENERGY: 0 379.1721 1043.0013 501.9395 64.7895 -74352.6940 6040.3453 0.0000 0.0000 17337.1184 -48986.3279 403.5354 -66323.4463 -48943.0437 403.5354 542.4767 576.7205 206133.3660 542.4767 576.7205
ENERGY: 400000 510.8591 1371.0504 557.7067 96.9239 -65022.7088 4586.1485 0.0000 0.0000 17217.0396 -40682.9808 400.7404 -57900.0203 -40616.4965 398.5057 -277.1074 -238.6086 228551.0274 5.6921 5.8647
ENERGY: 800000 516.7938 1316.6681 516.4518 87.9142 -64986.6601 4691.4281 0.0000 0.0000 16960.2372 -40897.1670 394.7632 -57857.4042 -40851.5419 398.7276 23.3115 51.2978 229982.5627 -5.1059 -5.0999
ENERGY: 1200000 511.4864 1315.0526 525.1682 94.5284 -64693.4256 4442.1330 0.0000 0.0000 17179.0826 -40625.9744 399.8570 -57805.0570 -40581.3923 398.7850 -123.9807 -105.8812 229611.6635 6.0254 6.0660
ENERGY: 1600000 510.2657 1300.3408 527.1165 79.9423 -65018.7840 4663.0009 0.0000 0.0000 17067.6167 -40870.5011 397.2625 -57938.1178 -40829.9870 398.5347 69.3671 109.4455 229492.2286 3.3984 3.6469
ENERGY: 2000000 437.0582 1339.1322 546.7318 90.0161 -64849.3236 4601.0070 0.0000 0.0000 17036.8217 -40798.5566 396.5457 -57835.3782 -40759.9136 398.6062 66.1927 104.5866 230586.1022 5.9129 5.9505
