Info: SIMULATION PARAMETERS:
Info: TIMESTEP               2
Info: NUMBER OF STEPS        200000
Info: STEPS PER CYCLE        10
Info: PERIODIC CELL BASIS 1  59.1391 0 0
Info: PERIODIC CELL BASIS 2  0 63.1519 0
Info: PERIODIC CELL BASIS 3  0 0 60.2599
Info: PERIODIC CELL CENTER   18.4185 3.7149 -11.2402
Info: WRAPPING ALL CLUSTERS AROUND PERIODIC BOUNDARIES ON OUTPUT.
Info: FIRST LDB TIMESTEP     50
Info: LAST LDB TIMESTEP     -1
Info: HOM BACKGROUND SCALING 1
Info: PME BACKGROUND SCALING 1
Info: MIN ATOMS PER PATCH    40
Info: INITIAL TEMPERATURE    450
Info: CENTER OF MASS MOVING INITIALLY? NO
Info: DIELECTRIC             1
Info: EXCLUDE                SCALED ONE-FOUR
Info: 1-4 ELECTROSTATICS SCALED BY 1
Info: MODIFIED 1-4 VDW PARAMETERS WILL BE USED
Info: DCD FILENAME           450k_5_mutata2.dcd
Info: DCD FREQUENCY          2000
Info: DCD FIRST STEP         2000
Info: DCD FILE WILL CONTAIN UNIT CELL DATA
Info: XST FILENAME           450k_5_mutata2.xst
Info: XST FREQUENCY          2000
Info: NO VELOCITY DCD OUTPUT
Info: NO FORCE DCD OUTPUT
Info: OUTPUT FILENAME        450k_5_mutata2
Info: BINARY OUTPUT FILES WILL BE USED
Info: RESTART FILENAME       450k_5_mutata2.restart
Info: RESTART FREQUENCY      100000
Info: BINARY RESTART FILES WILL BE USED
Info: SWITCHING ACTIVE
Info: SWITCHING ON           10
Info: SWITCHING OFF          12
Info: PAIRLIST DISTANCE      14
Info: PAIRLIST SHRINK RATE   0.01
Info: PAIRLIST GROW RATE     0.01
Info: PAIRLIST TRIGGER       0.3
Info: PAIRLISTS PER CYCLE    2
Info: PAIRLISTS ENABLED
Info: MARGIN                 0.495
Info: HYDROGEN GROUP CUTOFF  2.5
Info: PATCH DIMENSION        16.995
Info: ENERGY OUTPUT STEPS    2000
Info: CROSSTERM ENERGY INCLUDED IN DIHEDRAL
Info: TIMING OUTPUT STEPS    2000
Info: PRESSURE OUTPUT STEPS  2000
Info: LANGEVIN DYNAMICS ACTIVE
Info: LANGEVIN TEMPERATURE   450
Info: LANGEVIN USING BBK INTEGRATOR
Info: LANGEVIN DAMPING COEFFICIENT IS 5 INVERSE PS
Info: LANGEVIN DYNAMICS NOT APPLIED TO HYDROGENS
Info: LANGEVIN PISTON PRESSURE CONTROL ACTIVE
Info:        TARGET PRESSURE IS 1.01325 BAR
Info:     OSCILLATION PERIOD IS 200 FS
Info:             DECAY TIME IS 100 FS
Info:     PISTON TEMPERATURE IS 450 K
Info:       PRESSURE CONTROL IS GROUP-BASED
Info:    INITIAL STRAIN RATE IS -1.92523e-05 -1.92523e-05 -1.92523e-05
Info:       CELL FLUCTUATION IS ISOTROPIC
Info: PARTICLE MESH EWALD (PME) ACTIVE
Info: PME TOLERANCE               1e-06
Info: PME EWALD COEFFICIENT       0.257952
Info: PME INTERPOLATION ORDER     4
Info: PME GRID DIMENSIONS         60 64 64
Info: PME MAXIMUM GRID SPACING    1
Info: FULL ELECTROSTATIC EVALUATION FREQUENCY      2
Info: USING VERLET I (r-RESPA) MTS SCHEME.
Info: C1 SPLITTING OF LONG RANGE ELECTROSTATICS
Info: PLACING ATOMS IN PATCHES BY HYDROGEN GROUPS
Info: RIGID BONDS TO HYDROGEN : ALL
Info:         ERROR TOLERANCE : 1e-08
Info:          MAX ITERATIONS : 100
Info: RIGID WATER USING SETTLE ALGORITHM
Info: RANDOM NUMBER SEED     265
Info: USE HYDROGEN BONDS?    NO
Info: COORDINATE PDB         ../../input_mutant_2/2PYP_mutata2_ionized.pdb
Info: STRUCTURE FILE         ../../input_mutant_2/2PYP_mutata2_ionized.psf
Info: PARAMETER file: CHARMM format!
Info: PARAMETERS             ../../input_mutant_2/par_all27_prot_lipid.inp
Info: USING ARITHMETIC MEAN TO COMBINE L-J SIGMA PARAMETERS
Info: BINARY COORDINATES     ../../input_mutant_2/2PYP_mutata2_final.coor
Info: SUMMARY OF PARAMETERS:
Info: 180 BONDS
Info: 447 ANGLES
Info: 566 DIHEDRAL
Info: 46 IMPROPER
Info: 6 CROSSTERM
Info: 119 VDW
Info: 0 VDW_PAIRS
Info: 0 NBTHOLE_PAIRS
Info: STRUCTURE SUMMARY:
Info: 23087 ATOMS
Info: 16069 BONDS
Info: 10621 ANGLES
Info: 5232 DIHEDRALS
Info: 327 IMPROPERS
Info: 121 CROSSTERMS
Info: 0 EXCLUSIONS
Info: 22087 RIGID BONDS
Info: 47174 DEGREES OF FREEDOM
Info: 8039 HYDROGEN GROUPS
Info: 4 ATOMS IN LARGEST HYDROGEN GROUP
Info: 8039 MIGRATION GROUPS
Info: 4 ATOMS IN LARGEST MIGRATION GROUP
Info: TOTAL MASS = 141020 amu
Info: TOTAL CHARGE = 1.76765e-06 e
Info: MASS DENSITY = 1.04052 g/cm^3
Info: ATOM DENSITY = 0.102584 atoms/A^3
Info: ADDED 31842 IMPLICIT EXCLUSIONS
Info: NONBONDED TABLE R-SQUARED SPACING: 0.0625
Info: NONBONDED TABLE SIZE: 769 POINTS
Info: REMOVING COM VELOCITY -0.000881718 0.0392332 0.0397488
Info: Updated CUDA force table with 4096 elements.
Info: Updated CUDA LJ table with 119 x 119 elements.
Info: Found 272 unique exclusion lists needing 848 bytes
ETITLE: TS BOND ANGLE DIHED IMPRP ELECT VDW BOUNDARY MISC KINETIC TOTAL TEMP POTENTIAL TOTAL3 TEMPAVG PRESSURE GPRESSURE VOLUME PRESSAVG GPRESSAVG
ENERGY: 0 413.0961 1063.3539 518.0864 65.8009 -81940.8068 6741.5240 0.0000 0.0000 21050.8335 -52088.1120 449.1144 -73138.9455 -52040.5404 449.1144 1023.0191 1053.4115 225055.5131 1023.0191 1053.4115
ENERGY: 40000 537.2667 1449.4573 578.0364 85.2410 -66033.8071 4233.2580 0.0000 0.0000 20910.0081 -38240.5396 446.1099 -59150.5477 -38186.3085 447.0749 -379.3847 -357.1368 271335.6677 3.0880 2.9030
ENERGY: 80000 544.0731 1478.6156 603.0716 110.9521 -65776.7746 4179.6032 0.0000 0.0000 21012.3644 -37848.0946 448.2937 -58860.4590 -37782.3239 449.4285 2.7300 27.7906 271111.5744 -1.3490 -1.3440
ENERGY: 120000 556.9129 1525.6865 598.2234 89.2543 -66031.4228 4306.2605 0.0000 0.0000 21338.0354 -37617.0498 455.2418 -58955.0851 -37567.6404 449.3700 -3.2495 24.6090 272994.7137 -4.9246 -5.0222
ENERGY: 160000 569.0145 1569.0014 602.1667 99.2510 -65956.2763 4272.4511 0.0000 0.0000 21100.0184 -37744.3733 450.1637 -58844.3917 -37681.3566 448.8201 -204.0320 -181.8812 270874.7598 3.7463 3.5301
ENERGY: 200000 596.0143 1495.0427 591.4855 96.8503 -66079.1915 4324.9775 0.0000 0.0000 21076.7269 -37898.0941 449.6668 -58974.8210 -37857.5681 450.3049 -236.1185 -209.2356 269762.9253 6.8345 7.0292
